data_NewTest_PM
_symmetry_space_group_name_H-M	'P1'
_cell_length_a	33.792919
_cell_length_b	33.792919
_cell_length_c	33.792919
_cell_angle_alpha	90.000000
_cell_angle_beta	90.000000
_cell_angle_gamma	90.000000
_symmetry_Int_Tables_number 1

loop_
_symmetry_equiv_pos_as_xyz
'x,y,z'

loop_
_atom_site_label
_atom_site_type_symbol
_atom_site_fract_x
_atom_site_fract_y
_atom_site_fract_z
X1	C	-0.007510	-0.024160	0.019472
C1	C	-0.041067	-0.002972	0.024798
C2	C	-0.039765	0.036592	0.020803
C3	C	-0.006741	0.054644	0.008108
C4	C	0.026077	0.033071	0.000266
C5	C	0.026935	-0.006612	0.007724
C6	C	-0.008220	0.096487	0.003018
H1	H	-0.066250	0.053874	0.027017
C7	C	-0.102707	-0.019425	0.000829
C8	C	0.066293	-0.028983	0.005297
O1	O	0.058658	0.052069	-0.015920
C9	C	0.069370	-0.065441	-0.021129
H2	H	0.092363	-0.085119	-0.009351
H3	H	0.078100	-0.057185	-0.051165
H4	H	0.042205	-0.082723	-0.023230
H5	H	0.090499	-0.009216	-0.003433
H6	H	0.074105	-0.037506	0.035718
X2	C	-0.012363	0.131879	0.000710
H7	H	0.066056	0.039670	-0.040867
H8	H	-0.119871	0.008007	0.001598
H9	H	-0.086491	-0.021408	-0.027225
H10	H	-0.122919	-0.044549	0.002515
O2	O	-0.076755	-0.020994	0.034445

loop_
_geom_bond_atom_site_label_1
_geom_bond_atom_site_label_2
_geom_bond_distance
_ccdc_geom_bond_type
C1	C2	0.03979	. A
C1	O2	0.04113	. A
C2	C3	0.03972	. A
C2	H1	0.03223	. A
C3	C4	0.04005	. A
C3	C6	0.04218	. A
C4	C5	0.04039	. A
C4	O1	0.04104	. A
C5	C8	0.04534	. A
C7	H8	0.03237	. A
C7	H9	0.03246	. A
C7	H10	0.03229	. A
C7	O2	0.04250	. A
C8	C9	0.04513	. A
C8	H5	0.03245	. A
C8	H6	0.03254	. A
O1	H7	0.02882	. A
C9	H2	0.03248	. A
C9	H3	0.03235	. A
C9	H4	0.03227	. A
