data_0_PM
_symmetry_space_group_name_H-M	'P1'
_cell_length_a	46.043187
_cell_length_b	46.043187
_cell_length_c	46.043187
_cell_angle_alpha	90.000000
_cell_angle_beta	90.000000
_cell_angle_gamma	90.000000
_symmetry_Int_Tables_number 1

loop_
_symmetry_equiv_pos_as_xyz
'x,y,z'

loop_
_atom_site_label
_atom_site_type_symbol
_atom_site_fract_x
_atom_site_fract_y
_atom_site_fract_z
X1	C	0.008617	0.925562	0.999996
C2	C	0.982272	0.938180	0.999996
C3	C	0.979340	0.967001	0.999996
C4	C	0.002557	0.984637	0.000018
C5	C	0.028728	0.971975	0.000018
C6	C	0.031834	0.943067	0.000018
N7	N	0.000364	0.012697	0.999996
Br8	Br	0.941006	0.981900	0.999996
H9	H	0.962551	0.925149	0.999974
H10	H	0.053596	0.933945	0.999996
H11	H	0.048102	0.985527	0.000018
N12	N	0.987789	0.037544	0.000039
N13	N	0.008878	0.061803	0.999974
N14	N	0.994521	0.085216	0.999996
C15	C	0.989439	0.108629	0.999996
X16	C	0.980404	0.137167	0.999974

loop_
_geom_bond_atom_site_label_1
_geom_bond_atom_site_label_2
_geom_bond_distance
_ccdc_geom_bond_type
X1	C2	0.02921	. A
X1	C6	0.02908	. A
C2	C3	0.02897	. A
C2	H9	0.02364	. A
C3	C4	0.02916	. A
C3	Br8	0.04113	. A
C4	C5	0.02907	. A
C4	N7	0.02815	. A
C5	C6	0.02907	. A
C5	H11	0.02364	. A
C6	H10	0.02360	. A
N7	N12	0.02785	. A
N12	N13	0.03214	. A
N13	N14	0.02746	. A
N14	C15	0.02396	. A
C15	X16	0.02993	. A
