data_0_PM
_symmetry_space_group_name_H-M	'P1'
_cell_length_a	35.774595
_cell_length_b	35.774595
_cell_length_c	35.774595
_cell_angle_alpha	90.000000
_cell_angle_beta	90.000000
_cell_angle_gamma	90.000000
_symmetry_Int_Tables_number 1

loop_
_symmetry_equiv_pos_as_xyz
'x,y,z'

loop_
_atom_site_label
_atom_site_type_symbol
_atom_site_fract_x
_atom_site_fract_y
_atom_site_fract_z
X1	C	0.997282	0.939573	0.980693
C2	C	0.963711	0.955338	0.973201
C3	C	0.956778	0.992124	0.975018
C4	C	0.983809	0.017617	0.984522
C5	C	0.017687	0.000985	0.993215
C6	C	0.024452	0.963752	0.990923
C7	C	0.970950	0.053424	0.976052
H8	H	0.928266	0.001824	0.969987
O9	O	0.933410	0.935156	0.967387
N10	N	0.059169	0.951592	0.999058
C11	C	0.047625	0.029413	0.044649
X12	C	0.947694	0.077604	0.994417
H13	H	0.936009	0.069469	0.021336
H14	H	0.981265	0.063739	0.949385
H15	H	0.921166	0.937840	0.991203
H16	H	0.050225	0.001628	0.057171
H17	H	0.072671	0.045709	0.051022
H18	H	0.022998	0.043529	0.055997
O19	O	0.044047	0.026198	0.004480
H20	H	0.077423	0.968700	0.012587
H21	H	0.063362	0.924786	0.007695

loop_
_geom_bond_atom_site_label_1
_geom_bond_atom_site_label_2
_geom_bond_distance
_ccdc_geom_bond_type
X1	C2	0.03784	. A
X1	C6	0.03778	. A
C2	C3	0.03748	. A
C2	O9	0.03687	. A
C3	C4	0.03835	. A
C3	H8	0.03053	. A
C4	C5	0.03873	. A
C4	C7	0.03898	. A
C5	C6	0.03791	. A
C5	O19	0.03818	. A
C6	N10	0.03767	. A
C7	X12	0.03825	. A
C7	H14	0.03040	. A
O9	H15	0.02691	. A
N10	H20	0.02844	. A
N10	H21	0.02847	. A
C11	H16	0.03059	. A
C11	H17	0.03055	. A
C11	H18	0.03057	. A
C11	O19	0.04046	. A
X12	H13	0.03045	. A
