data_0_PM
_symmetry_space_group_name_H-M	'P1'
_cell_length_a	59.292221
_cell_length_b	59.292221
_cell_length_c	59.292221
_cell_angle_alpha	90.000000
_cell_angle_beta	90.000000
_cell_angle_gamma	90.000000
_symmetry_Int_Tables_number 1

loop_
_symmetry_equiv_pos_as_xyz
'x,y,z'

loop_
_atom_site_label
_atom_site_type_symbol
_atom_site_fract_x
_atom_site_fract_y
_atom_site_fract_z
X1	X	0.012312	0.052115	-0.001585
C1	C	-0.006763	0.063870	-0.005397
C2	C	-0.007758	0.086453	-0.004773
C3	C	0.010069	0.100081	-0.000506
C4	C	0.029515	0.088072	0.003390
C5	C	0.030223	0.065051	0.002918
C6	C	0.007438	0.123574	-0.000472
H1	H	-0.024320	0.093048	-0.008618
H2	H	-0.022499	0.055285	-0.009225
H3	H	0.045841	0.056297	0.006746
C7	C	0.070060	0.091901	-0.000978
C8	C	-0.012953	0.133980	-0.000928
C9	C	-0.016309	0.156530	-0.000978
C10	C	0.001063	0.172080	-0.000557
C11	C	0.021824	0.161488	-0.000439
C12	C	0.024405	0.138838	-0.000287
C13	C	-0.002395	0.193718	0.008348
H4	H	-0.033579	0.162736	-0.001113
H5	H	-0.028520	0.124468	-0.000725
H6	H	0.041810	0.133694	-0.000860
H7	H	0.036868	0.171945	-0.000776
C14	C	-0.002361	0.213114	-0.003828
C15	C	-0.006898	0.237485	0.005701
H8	H	0.000405	0.212237	-0.021942
H9	H	-0.005481	0.194933	0.026378
C16	C	0.007657	0.258111	-0.002547
X2	X	-0.008568	0.279109	-0.005093
N1	N	-0.029683	0.270457	0.005077
N2	N	-0.030071	0.245800	0.001653
H10	H	-0.035148	0.243793	-0.014639
H11	H	-0.029970	0.272447	0.022145
H12	H	0.015533	0.254384	-0.018788
H13	H	-0.011722	0.281403	-0.023123
H14	H	0.021048	0.261485	0.009630
H15	H	-0.004807	0.236675	0.024017
H16	H	0.075811	0.075811	0.005903
H17	H	0.082776	0.104752	0.002614
H18	H	0.067631	0.090552	-0.019210
O1	O	0.049079	0.098596	0.009681

loop_
_geom_bond_atom_site_label_1
_geom_bond_atom_site_label_2
_geom_bond_distance
X1	C1	0.02273
X1	C5	0.02255
C1	C2	0.02261
C1	H2	0.01833
C2	C3	0.02284
C2	H1	0.01824
C3	C4	0.02318
C3	C6	0.02364
C4	C5	0.02304
C4	O1	0.02309
C5	H3	0.01831
C6	C8	0.02290
C6	C12	0.02282
C7	H16	0.01842
C7	H17	0.01843
C7	H18	0.01844
C7	O1	0.02447
C8	C9	0.02280
C8	H5	0.01824
C9	C10	0.02332
C9	H4	0.01835
C10	C11	0.02331
C10	C13	0.02365
C11	C12	0.02280
C11	H7	0.01832
C12	H6	0.01816
C13	C14	0.02290
C13	H9	0.01833
C14	C15	0.02656
C14	H8	0.01834
C15	C16	0.02656
C15	N2	0.02495
C15	H15	0.01845
C16	X2	0.02666
C16	H12	0.01843
C16	H14	0.01841
X2	N1	0.02498
X2	H13	0.01845
N1	N2	0.02490
N1	H11	0.01719
N2	H10	0.01718
