data_NewTest_PM
_symmetry_space_group_name_H-M	'P1'
_cell_length_a	25.000000
_cell_length_b	25.000000
_cell_length_c	25.000000
_cell_angle_alpha	90.000000
_cell_angle_beta	90.000000
_cell_angle_gamma	90.000000
_symmetry_Int_Tables_number 1

loop_
_symmetry_equiv_pos_as_xyz
'x,y,z'

loop_
_atom_site_label
_atom_site_type_symbol
_atom_site_fract_x
_atom_site_fract_y
_atom_site_fract_z
X1	C	0.007435	-0.156600	0.002788
C1	C	-0.040245	-0.133520	0.014188
C2	C	-0.045165	-0.079280	0.009028
C3	C	-0.002365	-0.048120	-0.005572
C4	C	0.044875	-0.073000	-0.015052
C5	C	0.049595	-0.126480	-0.011852
C6	C	-0.006565	0.012800	-0.013492
C7	C	-0.097165	-0.055840	0.016788
Br1	Br	-0.099285	-0.175960	0.037548
H1	H	0.087755	-0.144840	-0.022212
H2	H	0.079995	-0.050480	-0.027532
C8	C	0.042235	0.049160	-0.007652
N1	N	0.014875	0.098120	0.007308
N2	N	-0.032645	0.086880	0.031708
N3	N	-0.042605	0.038200	0.025708
C9	C	0.032275	0.149960	-0.000172
H3	H	0.068915	0.036560	0.024788
H4	H	0.064915	0.052760	-0.044892
H5	H	-0.023685	0.019120	-0.053572
N4	N	-0.139605	-0.037600	0.022028
X2	C	0.002235	0.193960	0.005828
H6	H	-0.039725	0.191320	0.016628
H7	H	0.073955	0.152880	-0.012332

loop_
_geom_bond_atom_site_label_1
_geom_bond_atom_site_label_2
_geom_bond_distance
_ccdc_geom_bond_type
X1	C1	0.05419	. A
X1	C5	0.05384	. A
C1	C2	0.05471	. A
C1	Br1	0.07637	. A
C2	C3	0.05492	. A
C2	C7	0.05756	. A
C3	C4	0.05423	. A
C3	C6	0.06158	. A
C4	C5	0.05378	. A
C4	H2	0.04355	. A
C5	H1	0.04360	. A
C6	C8	0.06114	. A
C6	N3	0.05900	. A
C6	H5	0.04404	. A
C8	N1	0.05805	. A
C8	H3	0.04385	. A
C8	H4	0.04375	. A
N1	N2	0.05459	. A
N1	C9	0.05519	. A
N2	N3	0.05005	. A
C9	X2	0.05361	. A
C9	H7	0.04352	. A
X2	H6	0.04341	. A
