data_8_PM
_symmetry_space_group_name_H-M	'P1'
_cell_length_a	51.505488
_cell_length_b	51.505488
_cell_length_c	51.505488
_cell_angle_alpha	90.000000
_cell_angle_beta	90.000000
_cell_angle_gamma	90.000000
_symmetry_Int_Tables_number 1

loop_
_symmetry_equiv_pos_as_xyz
'x,y,z'

loop_
_atom_site_label
_atom_site_type_symbol
_atom_site_fract_x
_atom_site_fract_y
_atom_site_fract_z
X1	C	0.002482	0.911499	0.001296
C2	C	0.979708	0.924371	0.001820
C3	C	0.979319	0.950349	0.003898
C4	C	0.001492	0.964386	0.005664
C5	C	0.024169	0.951087	0.004383
C6	C	0.024751	0.925187	0.002111
C7	C	0.001026	0.992966	0.005820
H8	H	0.960176	0.959222	0.003432
H9	H	0.961224	0.914334	0.000248
H10	H	0.043895	0.916741	0.000694
H11	H	0.042847	0.960756	0.004500
C12	C	0.978057	0.005916	0.005567
C13	C	0.977106	0.031020	0.999549
C14	C	0.999240	0.043757	0.994850
C15	C	0.022519	0.032496	0.998092
C16	C	0.023198	0.007120	0.003801
C17	C	0.996813	0.069443	0.987026
H18	H	0.958312	0.040611	0.998364
H19	H	0.959438	0.996713	0.008849
H20	H	0.042381	0.998596	0.005451
Cl21	Cl	0.051681	0.049057	0.994093
C22	C	0.992871	0.092101	0.985065
C23	C	0.988639	0.120001	0.989627
X24	C	0.988658	0.142270	0.995801

loop_
_geom_bond_atom_site_label_1
_geom_bond_atom_site_label_2
_geom_bond_distance
_ccdc_geom_bond_type
X1	C2	0.02617	. A
X1	C6	0.02615	. A
C2	C3	0.02606	. A
C2	H9	0.02109	. A
C3	C4	0.02630	. A
C3	H8	0.02111	. A
C4	C5	0.02632	. A
C4	C7	0.02858	. A
C5	C6	0.02601	. A
C5	H11	0.02103	. A
C6	H10	0.02097	. A
C7	C12	0.02637	. A
C7	C16	0.02638	. A
C12	C13	0.02583	. A
C12	H19	0.02103	. A
C13	C14	0.02597	. A
C13	H18	0.02113	. A
C14	C15	0.02606	. A
C14	C17	0.02696	. A
C15	C16	0.02602	. A
C15	Cl21	0.03377	. A
C16	H20	0.02106	. A
C17	C22	0.02308	. A
C22	C23	0.02859	. A
C23	X24	0.02311	. A
