data_NewTest_PM
_symmetry_space_group_name_H-M	'P1'
_cell_length_a	34.306289
_cell_length_b	34.306289
_cell_length_c	34.306289
_cell_angle_alpha	90.000000
_cell_angle_beta	90.000000
_cell_angle_gamma	90.000000
_symmetry_Int_Tables_number 1

loop_
_symmetry_equiv_pos_as_xyz
'x,y,z'

loop_
_atom_site_label
_atom_site_type_symbol
_atom_site_fract_x
_atom_site_fract_y
_atom_site_fract_z
X1	C	-0.010883	-0.044439	0.005448
C1	C	-0.044405	-0.023743	0.007780
C2	C	-0.045192	0.015550	0.005914
C3	C	-0.011204	0.035343	0.002475
C4	C	0.021880	0.014035	-0.000003
C5	C	0.023425	-0.025229	0.001105
C6	C	-0.005928	0.077726	0.000259
O1	O	-0.080871	0.034585	0.007721
F1	F	-0.078947	-0.042165	0.012036
C7	C	0.070647	-0.078397	-0.011255
H1	H	0.049689	0.028959	-0.003384
H2	H	0.074203	-0.094430	0.016000
H3	H	0.050155	-0.092535	-0.031105
H4	H	0.099213	-0.078310	-0.025567
O2	O	0.060824	-0.039250	-0.003209
H5	H	-0.102470	0.016104	0.007721
X2	C	-0.031783	0.106787	0.003845
H6	H	-0.062565	0.102881	0.009121
H7	H	0.024212	0.086529	-0.004900

loop_
_geom_bond_atom_site_label_1
_geom_bond_atom_site_label_2
_geom_bond_distance
_ccdc_geom_bond_type
C1	C2	0.03935	. A
C1	F1	0.03938	. A
C2	C3	0.03948	. A
C2	O1	0.04048	. A
C3	C4	0.03943	. A
C3	C6	0.04277	. A
C4	C5	0.03931	. A
C4	H1	0.03174	. A
C5	O2	0.04017	. A
C6	H7	0.03182	. A
O1	H5	0.02843	. A
C7	H2	0.03182	. A
C7	H3	0.03184	. A
C7	H4	0.03195	. A
C7	O2	0.04116	. A
