data_11_PM
_symmetry_space_group_name_H-M	'P1'
_cell_length_a	39.796467
_cell_length_b	39.796467
_cell_length_c	39.796467
_cell_angle_alpha	90.000000
_cell_angle_beta	90.000000
_cell_angle_gamma	90.000000
_symmetry_Int_Tables_number 1

loop_
_symmetry_equiv_pos_as_xyz
'x,y,z'

loop_
_atom_site_label
_atom_site_type_symbol
_atom_site_fract_x
_atom_site_fract_y
_atom_site_fract_z
X1	C	0.018395	0.908775	0.000627
C2	C	0.990302	0.925736	0.993541
C3	C	0.990101	0.959206	0.991053
C4	C	0.018671	0.977248	0.996431
C5	C	0.046940	0.959684	0.003366
C6	C	0.046764	0.925987	0.005552
N7	N	0.021737	0.009990	0.993843
C8	C	0.932608	0.976092	0.002085
H9	H	0.967109	0.912217	0.988390
H10	H	0.069706	0.911815	0.011181
C11	C	0.073224	0.968655	0.007864
N12	N	0.995377	0.026122	0.002160
C13	C	0.993619	0.058286	0.983842
C14	C	0.016108	0.085700	0.999270
X15	N	0.994875	0.111205	0.015201
N16	N	0.978994	0.092334	0.028017
N17	N	0.976959	0.069065	0.003442
H18	H	0.030883	0.097133	0.979093
H19	H	0.034426	0.075297	0.017287
H20	H	0.967762	0.065824	0.977459
N21	N	0.098251	0.979133	0.998315
H22	H	0.921100	0.951417	0.005527
H23	H	0.914315	0.993230	0.990903
H24	H	0.940850	0.986294	0.026258
O25	O	0.960927	0.973554	0.979294

loop_
_geom_bond_atom_site_label_1
_geom_bond_atom_site_label_2
_geom_bond_distance
_ccdc_geom_bond_type
X1	C2	0.03357	. A
X1	C6	0.03355	. A
C2	C3	0.03356	. A
C2	H9	0.02734	. A
C3	C4	0.03422	. A
C3	O25	0.03457	. A
C4	C5	0.03400	. A
C4	N7	0.03299	. A
C5	C6	0.03377	. A
C5	C11	0.02813	. A
C6	H10	0.02755	. A
N7	N12	0.03200	. A
C8	H22	0.02744	. A
C8	H23	0.02745	. A
C8	H24	0.02750	. A
C8	O25	0.03644	. A
C11	N21	0.02876	. A
N12	C13	0.03706	. A
C13	C14	0.03867	. A
C13	N17	0.02789	. A
C13	H20	0.02768	. A
C14	X15	0.03681	. A
C14	H18	0.02750	. A
C14	H19	0.02772	. A
X15	N16	0.02779	. A
N16	N17	0.03390	. A
