data_NewTest_PM
_symmetry_space_group_name_H-M	'P1'
_cell_length_a	35.454110
_cell_length_b	35.454110
_cell_length_c	35.454110
_cell_angle_alpha	90.000000
_cell_angle_beta	90.000000
_cell_angle_gamma	90.000000
_symmetry_Int_Tables_number 1

loop_
_symmetry_equiv_pos_as_xyz
'x,y,z'

loop_
_atom_site_label
_atom_site_type_symbol
_atom_site_fract_x
_atom_site_fract_y
_atom_site_fract_z
X1	C	0.001494	-0.100195	-0.000920
C1	C	-0.031225	-0.081805	0.004298
C2	C	-0.032550	-0.043700	0.006272
C3	C	-0.000481	-0.021925	0.002747
C4	C	0.032238	-0.041556	-0.003853
C5	C	0.032830	-0.079690	-0.005461
C6	C	-0.004148	0.021793	0.008275
Br1	Br	-0.081656	-0.023928	0.015411
H1	H	-0.057061	-0.098193	0.007513
F1	F	0.065999	-0.097854	-0.011130
Cl1	Cl	0.076520	-0.021502	-0.010115
C7	C	0.029079	0.049773	0.009572
X2	C	0.015878	0.085622	-0.010115
N1	N	-0.024766	0.080151	-0.016151
N2	N	-0.029532	0.039760	-0.019507
H2	H	-0.056892	0.031976	-0.014092
H3	H	-0.039263	0.092025	0.005906
H4	H	0.053899	0.041227	-0.006025
H5	H	0.029473	0.088358	-0.037785
H6	H	0.037540	0.054709	0.038934
H7	H	-0.017376	0.024952	0.036227

loop_
_geom_bond_atom_site_label_1
_geom_bond_atom_site_label_2
_geom_bond_distance
_ccdc_geom_bond_type
C1	C2	0.03818	. A
C1	H1	0.03076	. A
C2	C3	0.03892	. A
C2	Br1	0.05372	. A
C3	C4	0.03872	. A
C3	C6	0.04422	. A
C4	C5	0.03817	. A
C4	Cl1	0.04901	. A
C5	F1	0.03824	. A
C6	C7	0.04346	. A
C6	N2	0.04170	. A
C6	H7	0.03108	. A
C7	H4	0.03054	. A
C7	H6	0.03095	. A
N1	N2	0.04081	. A
N1	H3	0.02894	. A
N2	H2	0.02896	. A
