data_12_PM
_symmetry_space_group_name_H-M	'P1'
_cell_length_a	48.063501
_cell_length_b	48.063501
_cell_length_c	48.063501
_cell_angle_alpha	90.000000
_cell_angle_beta	90.000000
_cell_angle_gamma	90.000000
_symmetry_Int_Tables_number 1

loop_
_symmetry_equiv_pos_as_xyz
'x,y,z'

loop_
_atom_site_label
_atom_site_type_symbol
_atom_site_fract_x
_atom_site_fract_y
_atom_site_fract_z
X1	C	0.002521	0.924816	0.998120
C2	C	0.977346	0.937674	0.998390
C3	C	0.973954	0.965700	0.000159
C4	C	0.995530	0.983697	0.001636
C5	C	0.020580	0.970714	0.001178
C6	C	0.024408	0.942564	0.999618
C7	C	0.991140	0.016820	0.006296
C8	C	0.951609	0.971629	0.000845
H9	H	0.958579	0.924775	0.997475
C10	C	0.054119	0.931620	0.999202
H11	H	0.039076	0.983634	0.002739
C12	C	0.014338	0.039040	0.001345
C13	C	0.003020	0.067607	0.988237
N14	N	0.973434	0.062093	0.996143
N15	N	0.968628	0.031800	0.991420
N16	N	0.984711	0.092490	0.999597
H17	H	0.950236	0.027451	0.001116
H18	H	0.960763	0.070894	0.981538
H19	H	0.025365	0.042827	0.020840
H20	H	0.019415	0.080132	0.998141
H21	H	0.029506	0.030427	0.986760
H22	H	0.985876	0.018692	0.028371
N23	N	0.928327	0.976103	0.002947
X24	N	0.981673	0.120079	0.000637
H25	H	0.055700	0.910419	0.991275
H26	H	0.062941	0.931828	0.020153
H27	H	0.067206	0.944478	0.985824

loop_
_geom_bond_atom_site_label_1
_geom_bond_atom_site_label_2
_geom_bond_distance
_ccdc_geom_bond_type
X1	C2	0.02827	. A
X1	C6	0.02822	. A
C2	C3	0.02829	. A
C2	H9	0.02279	. A
C3	C4	0.02814	. A
C3	C8	0.02313	. A
C4	C5	0.02822	. A
C4	C7	0.03374	. A
C5	C6	0.02845	. A
C5	H11	0.02262	. A
C6	C10	0.03166	. A
C7	C12	0.03250	. A
C7	N15	0.03086	. A
C7	H22	0.02277	. A
C8	N23	0.02380	. A
C10	H25	0.02269	. A
C10	H26	0.02273	. A
C10	H27	0.02271	. A
C12	C13	0.03341	. A
C12	H19	0.02272	. A
C12	H21	0.02274	. A
C13	N14	0.03112	. A
C13	N16	0.03292	. A
C13	H20	0.02289	. A
N14	N15	0.03103	. A
N14	H18	0.02124	. A
N15	H17	0.02124	. A
N16	X24	0.02777	. A
