data_NewTest_PM
_symmetry_space_group_name_H-M	'P1'
_cell_length_a	37.308423
_cell_length_b	37.308423
_cell_length_c	37.308423
_cell_angle_alpha	90.000000
_cell_angle_beta	90.000000
_cell_angle_gamma	90.000000
_symmetry_Int_Tables_number 1

loop_
_symmetry_equiv_pos_as_xyz
'x,y,z'

loop_
_atom_site_label
_atom_site_type_symbol
_atom_site_fract_x
_atom_site_fract_y
_atom_site_fract_z
X1	C	0.014131	-0.082311	0.005697
C1	C	-0.016077	-0.063923	-0.002344
C2	C	-0.013932	-0.028060	-0.007759
C3	C	0.015337	-0.007662	0.001355
C4	C	0.044821	-0.026988	0.011969
C5	C	0.044044	-0.063334	0.012505
C6	C	0.012014	0.033374	0.001006
O1	O	-0.043443	-0.013023	-0.025208
C7	C	-0.053092	-0.080970	-0.003095
H1	H	0.068355	-0.077218	0.020412
Br1	Br	0.090039	-0.008654	0.026952
H2	H	-0.037010	-0.007662	-0.049974
H3	H	-0.074053	-0.061189	0.003231
H4	H	-0.059230	-0.093193	-0.028880
H5	H	-0.056336	-0.100483	0.018616
C8	C	-0.020606	0.049992	0.004491
C9	C	-0.025056	0.085828	0.003767
X2	C	0.003624	0.107539	0.001596
C10	C	0.036351	0.092717	-0.000227
C11	C	0.039997	0.056532	-0.001379
H6	H	-0.052047	0.096872	0.005509
H7	H	-0.045212	0.034821	0.007788
H8	H	0.067309	0.047607	-0.004435
H9	H	0.060072	0.109389	-0.001594

loop_
_geom_bond_atom_site_label_1
_geom_bond_atom_site_label_2
_geom_bond_distance
_ccdc_geom_bond_type
C1	C2	0.03633	. A
C1	C7	0.04076	. A
C2	C3	0.03682	. A
C2	O1	0.03744	. A
C3	C4	0.03682	. A
C3	C6	0.04117	. A
C4	C5	0.03636	. A
C4	Br1	0.05104	. A
C5	H1	0.02909	. A
C6	C8	0.03677	. A
C6	C11	0.03640	. A
O1	H2	0.02614	. A
C7	H3	0.02951	. A
C7	H4	0.02919	. A
C7	H5	0.02937	. A
C8	C9	0.03612	. A
C8	H7	0.02909	. A
C9	H6	0.02921	. A
C10	C11	0.03639	. A
C10	H9	0.02903	. A
C11	H8	0.02890	. A
