data_13_PM
_symmetry_space_group_name_H-M	'P1'
_cell_length_a	54.475990
_cell_length_b	54.475990
_cell_length_c	54.475990
_cell_angle_alpha	90.000000
_cell_angle_beta	90.000000
_cell_angle_gamma	90.000000
_symmetry_Int_Tables_number 1

loop_
_symmetry_equiv_pos_as_xyz
'x,y,z'

loop_
_atom_site_label
_atom_site_type_symbol
_atom_site_fract_x
_atom_site_fract_y
_atom_site_fract_z
X1	C	0.018755	0.889818	0.989573
C2	C	0.998306	0.899162	0.978431
C3	C	0.993570	0.923705	0.976063
C4	C	0.008475	0.941309	0.985260
C5	C	0.028190	0.931249	0.996292
C6	C	0.033991	0.907202	0.997302
C7	C	0.002656	0.965797	0.987334
H8	H	0.976057	0.929138	0.968096
H9	H	0.983987	0.886716	0.972043
H10	H	0.049282	0.901181	0.008811
O11	O	0.030797	0.938720	0.018210
H12	H	0.017176	0.926146	0.019091
C13	C	0.002307	0.988999	0.989757
N14	N	0.006199	0.014313	0.987389
N15	N	0.997535	0.033661	0.999486
C16	C	0.990357	0.059930	0.010390
C17	C	0.006144	0.084161	0.005140
X18	C	0.991036	0.107162	0.015897
N19	N	0.966126	0.098534	0.009050
N20	N	0.965484	0.071164	0.008022
H21	H	0.953956	0.065584	0.021661
H22	H	0.962143	0.103674	0.991519
H23	H	0.024262	0.082876	0.013621
H24	H	0.992413	0.106446	0.035906
H25	H	0.008604	0.086345	0.985351
H26	H	0.992193	0.057011	0.030307

loop_
_geom_bond_atom_site_label_1
_geom_bond_atom_site_label_2
_geom_bond_distance
_ccdc_geom_bond_type
X1	C2	0.02509	. A
X1	C6	0.02437	. A
C2	C3	0.02511	. A
C2	H9	0.02002	. A
C3	C4	0.02483	. A
C3	H8	0.01999	. A
C4	C5	0.02473	. A
C4	C7	0.02526	. A
C5	C6	0.02476	. A
C5	O11	0.02330	. A
C6	H10	0.02006	. A
C7	C13	0.02333	. A
O11	H12	0.01856	. A
C13	N14	0.02572	. A
N14	N15	0.02441	. A
N15	C16	0.02933	. A
C16	C17	0.02939	. A
C16	N20	0.02740	. A
C16	H26	0.02021	. A
C17	X18	0.02955	. A
C17	H23	0.02005	. A
C17	H25	0.02006	. A
X18	N19	0.02724	. A
X18	H24	0.02007	. A
N19	N20	0.02740	. A
N19	H22	0.01870	. A
N20	H21	0.01871	. A
