data_NewTest_PM
_symmetry_space_group_name_H-M	'P1'
_cell_length_a	36.823301
_cell_length_b	36.823301
_cell_length_c	36.823301
_cell_angle_alpha	90.000000
_cell_angle_beta	90.000000
_cell_angle_gamma	90.000000
_symmetry_Int_Tables_number 1

loop_
_symmetry_equiv_pos_as_xyz
'x,y,z'

loop_
_atom_site_label
_atom_site_type_symbol
_atom_site_fract_x
_atom_site_fract_y
_atom_site_fract_z
X1	C	-0.001341	-0.100663	-0.000542
C1	C	-0.031295	-0.082876	0.010755
C2	C	-0.031485	-0.046160	0.011108
C3	C	-0.003052	-0.025629	-0.000596
C4	C	0.026060	-0.044313	-0.014392
C5	C	0.026685	-0.081056	-0.013414
C6	C	-0.005768	0.015160	0.001305
H1	H	-0.056089	-0.033070	0.021184
Cl1	Cl	-0.070699	-0.104601	0.025094
H2	H	0.050365	-0.094825	-0.024521
Br1	Br	0.067148	-0.023701	-0.038072
C7	C	-0.037514	0.033409	-0.003095
C8	C	-0.038980	0.070071	-0.002769
X2	C	-0.008429	0.090167	0.000517
C9	C	0.023589	0.072841	0.005487
C10	C	0.023942	0.036125	0.007361
H3	H	-0.065295	0.083025	-0.006299
H4	H	-0.063041	0.019098	-0.007195
H5	H	0.049904	0.023524	0.013227
C11	C	0.058051	0.090791	0.007306
N1	N	0.087244	0.102686	0.007551

loop_
_geom_bond_atom_site_label_1
_geom_bond_atom_site_label_2
_geom_bond_distance
_ccdc_geom_bond_type
C1	C2	0.03672	. A
C1	Cl1	0.04723	. A
C2	C3	0.03697	. A
C2	H1	0.02963	. A
C3	C4	0.03724	. A
C3	C6	0.04092	. A
C4	C5	0.03676	. A
C4	Br1	0.05171	. A
C5	H2	0.02956	. A
C6	C7	0.03688	. A
C6	C10	0.03686	. A
C7	C8	0.03669	. A
C7	H4	0.02955	. A
C8	H3	0.02954	. A
C9	C10	0.03677	. A
C9	C11	0.03890	. A
C10	H5	0.02945	. A
C11	N1	0.03152	. A
