data_14_PM
_symmetry_space_group_name_H-M	'P1'
_cell_length_a	46.815377
_cell_length_b	46.815377
_cell_length_c	46.815377
_cell_angle_alpha	90.000000
_cell_angle_beta	90.000000
_cell_angle_gamma	90.000000
_symmetry_Int_Tables_number 1

loop_
_symmetry_equiv_pos_as_xyz
'x,y,z'

loop_
_atom_site_label
_atom_site_type_symbol
_atom_site_fract_x
_atom_site_fract_y
_atom_site_fract_z
X1	C	0.009575	0.912065	0.000979
C2	C	0.983943	0.925308	0.001941
C3	C	0.982875	0.953910	0.001556
C4	C	0.006158	0.970870	0.000360
C5	C	0.031256	0.956879	0.999676
C6	C	0.032880	0.928534	0.999933
C7	C	0.004427	0.999963	0.999869
H8	H	0.961535	0.962710	0.002560
N9	N	0.958630	0.911723	0.003372
H10	H	0.054133	0.919220	0.999164
H11	H	0.051698	0.967559	0.998587
C12	C	0.979243	0.014082	0.999121
C13	C	0.977684	0.042492	0.998587
C14	C	0.001095	0.058555	0.998886
C15	C	0.026194	0.045247	0.999570
C16	C	0.027860	0.016859	0.999997
N17	N	0.999557	0.085960	0.998715
H18	H	0.956772	0.052638	0.997989
H19	H	0.958716	0.003530	0.998672
H20	H	0.049413	0.008657	0.000766
H21	H	0.045824	0.057722	0.999869
H22	H	0.956708	0.891302	0.996066
H23	H	0.940132	0.922339	0.999100
N24	N	0.991355	0.111956	0.998352
N25	N	0.016197	0.131266	0.000744
X26	N	0.996139	0.148653	0.005572

loop_
_geom_bond_atom_site_label_1
_geom_bond_atom_site_label_2
_geom_bond_distance
_ccdc_geom_bond_type
X1	C2	0.02887	. A
X1	C6	0.02856	. A
C2	C3	0.02862	. A
C2	N9	0.02876	. A
C3	C4	0.02883	. A
C3	H8	0.02310	. A
C4	C5	0.02874	. A
C4	C7	0.02915	. A
C5	C6	0.02839	. A
C5	H11	0.02309	. A
C6	H10	0.02322	. A
C7	C12	0.02888	. A
C7	C16	0.02889	. A
N9	H22	0.02177	. A
N9	H23	0.02175	. A
C12	C13	0.02846	. A
C12	H19	0.02309	. A
C13	C14	0.02839	. A
C13	H18	0.02325	. A
C14	C15	0.02842	. A
C14	N17	0.02745	. A
C15	C16	0.02844	. A
C15	H21	0.02326	. A
C16	H20	0.02307	. A
N17	N24	0.02726	. A
N24	N25	0.03156	. A
N25	X26	0.02698	. A
