data_NewTest_PM
_symmetry_space_group_name_H-M	'P1'
_cell_length_a	30.966424
_cell_length_b	30.966424
_cell_length_c	30.966424
_cell_angle_alpha	90.000000
_cell_angle_beta	90.000000
_cell_angle_gamma	90.000000
_symmetry_Int_Tables_number 1

loop_
_symmetry_equiv_pos_as_xyz
'x,y,z'

loop_
_atom_site_label
_atom_site_type_symbol
_atom_site_fract_x
_atom_site_fract_y
_atom_site_fract_z
X1	C	0.017422	-0.042141	-0.007737
C1	C	-0.021911	-0.021635	-0.005864
C2	C	-0.022912	0.022025	-0.006381
C3	C	0.012966	0.046342	-0.003894
C4	C	0.051394	0.025771	-0.002473
C5	C	0.054430	-0.018083	-0.006478
N1	N	0.013708	0.090809	-0.000116
H1	H	-0.053590	0.039173	-0.007382
C6	C	-0.065216	-0.045403	-0.000116
C7	C	0.100254	-0.035166	-0.009868
O1	O	0.088531	0.050346	0.004082
X2	N	-0.017228	0.112995	-0.013292
H2	H	0.080781	0.079765	0.012446
C8	C	-0.102773	-0.018825	0.018194
H3	H	-0.092536	0.001099	0.045611
H4	H	-0.116691	0.002294	-0.006542
H5	H	-0.128575	-0.040106	0.029691
H6	H	-0.060307	-0.071334	0.023555
H7	H	-0.075646	-0.059999	-0.030633
H8	H	0.111104	-0.047792	0.021359
H9	H	0.123828	-0.010397	-0.019072
H10	H	0.102966	-0.059741	-0.035089

loop_
_geom_bond_atom_site_label_1
_geom_bond_atom_site_label_2
_geom_bond_distance
_ccdc_geom_bond_type
C1	C2	0.04367	. A
C1	C6	0.04973	. A
C2	C3	0.04341	. A
C2	H1	0.03516	. A
C3	C4	0.04361	. A
C3	N1	0.04463	. A
C4	C5	0.04414	. A
C4	O1	0.04501	. A
C5	C7	0.04902	. A
C6	C8	0.04952	. A
C6	H6	0.03545	. A
C6	H7	0.03540	. A
C7	H8	0.03539	. A
C7	H9	0.03541	. A
C7	H10	0.03532	. A
O1	H2	0.03155	. A
C8	H3	0.03540	. A
C8	H4	0.03538	. A
C8	H5	0.03537	. A
