data_17_PM
_symmetry_space_group_name_H-M	'P1'
_cell_length_a	53.026922
_cell_length_b	53.026922
_cell_length_c	53.026922
_cell_angle_alpha	90.000000
_cell_angle_beta	90.000000
_cell_angle_gamma	90.000000
_symmetry_Int_Tables_number 1

loop_
_symmetry_equiv_pos_as_xyz
'x,y,z'

loop_
_atom_site_label
_atom_site_type_symbol
_atom_site_fract_x
_atom_site_fract_y
_atom_site_fract_z
X1	C	0.013027	0.918690	0.001712
C2	C	0.990246	0.929514	0.998563
C3	C	0.986833	0.954445	0.996036
C4	C	0.006540	0.970531	0.996488
C5	C	0.029547	0.959895	0.998921
C6	C	0.032715	0.934700	0.001561
C7	C	0.001693	0.999743	0.994376
C8	C	0.959639	0.963365	0.992566
H9	H	0.973443	0.917822	0.998318
H10	H	0.051668	0.927176	0.003768
H11	H	0.046255	0.971719	0.999072
H12	H	0.947381	0.948109	0.986173
H13	H	0.958074	0.978338	0.978554
H14	H	0.951907	0.970267	0.010387
C15	C	0.022720	0.020411	0.993565
C16	C	0.011198	0.043702	0.007803
N17	N	0.984872	0.036347	0.012405
N18	N	0.985513	0.008964	0.015101
N19	N	0.009293	0.069160	0.994753
H20	H	0.967503	0.003364	0.011462
H21	H	0.979591	0.043136	0.029585
H22	H	0.027850	0.025051	0.974160
H23	H	0.020684	0.045965	0.026134
H24	H	0.039636	0.014188	0.003541
H25	H	0.991170	0.002666	0.976819
N26	N	0.010840	0.090036	0.007388
N27	N	0.001618	0.114326	0.995470
X28	N	0.998544	0.138370	0.995319

loop_
_geom_bond_atom_site_label_1
_geom_bond_atom_site_label_2
_geom_bond_distance
_ccdc_geom_bond_type
X1	C2	0.02542	. A
X1	C6	0.02538	. A
C2	C3	0.02529	. A
C2	H9	0.02047	. A
C3	C4	0.02544	. A
C3	C8	0.02883	. A
C4	C5	0.02546	. A
C4	C7	0.02969	. A
C5	C6	0.02553	. A
C5	H11	0.02047	. A
C6	H10	0.02051	. A
C7	C15	0.02950	. A
C7	N18	0.02786	. A
C7	H25	0.02068	. A
C8	H12	0.02059	. A
C8	H13	0.02057	. A
C8	H14	0.02062	. A
C15	C16	0.02963	. A
C15	H22	0.02060	. A
C15	H24	0.02060	. A
C16	N17	0.02772	. A
C16	N19	0.02867	. A
C16	H23	0.02076	. A
N17	N18	0.02752	. A
N17	H21	0.01921	. A
N18	H20	0.01921	. A
N19	N26	0.02445	. A
N26	N27	0.02858	. A
N27	X28	0.02424	. A
