data_19_PM
_symmetry_space_group_name_H-M	'P1'
_cell_length_a	60.372004
_cell_length_b	60.372004
_cell_length_c	60.372004
_cell_angle_alpha	90.000000
_cell_angle_beta	90.000000
_cell_angle_gamma	90.000000
_symmetry_Int_Tables_number 1

loop_
_symmetry_equiv_pos_as_xyz
'x,y,z'

loop_
_atom_site_label
_atom_site_type_symbol
_atom_site_fract_x
_atom_site_fract_y
_atom_site_fract_z
X1	C	0.001177	0.899978	0.998945
C2	C	0.982145	0.912368	0.999524
C3	C	0.981035	0.935028	0.999375
C4	C	0.998692	0.948875	0.998613
C5	C	0.018122	0.936734	0.997984
C6	C	0.018784	0.913759	0.998183
C7	C	0.995843	0.971866	0.998481
H8	H	0.964521	0.942283	0.999872
H9	H	0.966111	0.904136	0.000154
H10	H	0.034868	0.905660	0.997586
C11	C	0.041526	0.946357	0.996974
C12	C	0.993160	0.993084	0.998647
C13	C	0.990145	0.017566	0.999077
C14	C	0.045137	0.971120	0.001512
H15	H	0.037634	0.975941	0.017248
H16	H	0.062861	0.974533	0.002423
H17	H	0.038313	0.981109	0.988079
H18	H	0.048533	0.942465	0.980741
H19	H	0.051680	0.937479	0.009082
C20	C	0.987130	0.038668	0.000137
C21	C	0.981432	0.064591	0.004378
C22	C	0.994568	0.087300	0.997885
X23	C	0.978782	0.108916	0.002953
N24	N	0.957945	0.097719	0.995417
N25	N	0.958955	0.072856	0.997918
H26	H	0.947178	0.068666	0.009264
H27	H	0.955907	0.099905	0.978819
H28	H	0.010138	0.088460	0.007028
H29	H	0.977755	0.110490	0.020975
H30	H	0.998593	0.086886	0.980244
H31	H	0.981333	0.065204	0.022482

loop_
_geom_bond_atom_site_label_1
_geom_bond_atom_site_label_2
_geom_bond_distance
_ccdc_geom_bond_type
X1	C2	0.02272	. A
X1	C6	0.02237	. A
C2	C3	0.02269	. A
C2	H9	0.01803	. A
C3	C4	0.02245	. A
C3	H8	0.01804	. A
C4	C5	0.02292	. A
C4	C7	0.02317	. A
C5	C6	0.02298	. A
C5	C11	0.02533	. A
C6	H10	0.01802	. A
C7	C12	0.02139	. A
C11	C14	0.02543	. A
C11	H18	0.01810	. A
C11	H19	0.01813	. A
C12	C13	0.02467	. A
C13	C20	0.02134	. A
C14	H15	0.01809	. A
C14	H16	0.01807	. A
C14	H17	0.01808	. A
C20	C21	0.02688	. A
C21	C22	0.02703	. A
C21	N25	0.02480	. A
C21	H31	0.01812	. A
C22	X23	0.02724	. A
C22	H28	0.01809	. A
C22	H30	0.01810	. A
X23	N24	0.02483	. A
X23	H29	0.01812	. A
N24	N25	0.02501	. A
N24	H27	0.01686	. A
N25	H26	0.01688	. A
