data_1_PM
_symmetry_space_group_name_H-M	'P1'
_cell_length_a	75.503891
_cell_length_b	75.503891
_cell_length_c	75.503891
_cell_angle_alpha	90.000000
_cell_angle_beta	90.000000
_cell_angle_gamma	90.000000
_symmetry_Int_Tables_number 1

loop_
_symmetry_equiv_pos_as_xyz
'x,y,z'

loop_
_atom_site_label
_atom_site_type_symbol
_atom_site_fract_x
_atom_site_fract_y
_atom_site_fract_z
X1	C	0.001270	0.889446	0.999001
C2	C	0.984754	0.895499	0.001676
C3	C	0.980979	0.912491	0.002563
C4	C	0.993707	0.924570	0.000934
C5	C	0.010819	0.918915	0.000550
C6	C	0.014978	0.901419	0.998378
C7	C	0.988754	0.941562	0.998405
H8	H	0.967046	0.916054	0.003543
H9	H	0.973417	0.886691	0.002855
C10	C	0.032553	0.897684	0.995478
C11	C	0.024130	0.930662	0.002961
C12	C	0.040870	0.926649	0.000616
C13	C	0.044897	0.910398	0.996100
H14	H	0.021984	0.944211	0.007186
H15	H	0.051069	0.936741	0.001967
H16	H	0.058711	0.907577	0.993200
C17	C	0.053929	0.874241	0.000749
H18	H	0.060922	0.884307	0.008457
H19	H	0.063200	0.867977	0.991584
H20	H	0.048804	0.864295	0.009914
O21	O	0.039321	0.881711	0.990445
N22	N	0.972689	0.947748	0.001199
N23	N	0.970172	0.964594	0.999451
C24	C	0.984304	0.974832	0.998140
N25	N	0.999535	0.967627	0.994458
N26	N	0.998873	0.951761	0.988816
C27	C	0.983655	0.992460	0.999557
C28	C	0.967854	0.000579	0.000881
C29	C	0.966782	0.018075	0.001239
C30	C	0.981761	0.027200	0.000643
C31	C	0.997522	0.019929	0.999914
C32	C	0.997681	0.095356	0.001504
H33	H	0.955444	0.993268	0.001159
H34	H	0.011852	0.996685	0.998484
O35	O	0.010832	0.032458	0.999703
C36	C	0.984052	0.044193	0.000590
C37	C	0.971655	0.056311	0.000828
C38	C	0.001124	0.047875	0.000193
C39	C	0.006541	0.064788	0.000365
C40	C	0.976834	0.072867	0.001054
C41	C	0.994158	0.077820	0.001054
H42	H	0.020646	0.067609	0.000179
H43	H	0.965709	0.081979	0.001080
C44	C	0.998661	0.002407	0.999252
H45	H	0.953921	0.024512	0.001875
H46	H	0.957630	0.053080	0.000802
N47	N	0.984012	0.105620	0.003146
C48	C	0.985496	0.122242	0.002285
C49	C	0.001111	0.130109	0.000285
N50	N	0.015627	0.120653	0.999517
C51	C	0.013733	0.103289	0.000100
H52	H	0.025706	0.095382	0.998723
C53	C	0.971099	0.146929	0.999650
X54	C	0.986542	0.155631	0.997451
N55	N	0.970384	0.130096	0.002365
N56	N	0.001879	0.147247	0.998140
H57	H	0.958411	0.153684	0.999358

loop_
_geom_bond_atom_site_label_1
_geom_bond_atom_site_label_2
_geom_bond_distance
_ccdc_geom_bond_type
X1	C2	0.01779	. A
X1	C6	0.01821	. A
C2	C3	0.01743	. A
C2	H9	0.01440	. A
C3	C4	0.01762	. A
C3	H8	0.01441	. A
C4	C5	0.01803	. A
C4	C7	0.01788	. A
C5	C6	0.01811	. A
C5	C11	0.01792	. A
C6	C10	0.01820	. A
C7	N22	0.01744	. A
C7	N26	0.01727	. A
C10	C13	0.01773	. A
C10	O21	0.01806	. A
C11	C12	0.01737	. A
C11	H14	0.01435	. A
C12	C13	0.01734	. A
C12	H15	0.01441	. A
C13	H16	0.01439	. A
C17	H18	0.01448	. A
C17	H19	0.01446	. A
C17	H20	0.01446	. A
C17	O21	0.01937	. A
N22	N23	0.01712	. A
N23	C24	0.01750	. A
C24	N25	0.01725	. A
C24	C27	0.01770	. A
N25	N26	0.01685	. A
C27	C28	0.01781	. A
C27	C44	0.01801	. A
C28	C29	0.01753	. A
C28	H33	0.01441	. A
C29	C30	0.01755	. A
C29	H45	0.01440	. A
C30	C31	0.01737	. A
C30	C36	0.01715	. A
C31	O35	0.01828	. A
C31	C44	0.01757	. A
C32	C41	0.01789	. A
C32	N47	0.01717	. A
C32	C51	0.01796	. A
H34	C44	0.01440	. A
O35	C38	0.01823	. A
C36	C37	0.01734	. A
C36	C38	0.01747	. A
C37	C40	0.01735	. A
C37	H46	0.01439	. A
C38	C39	0.01776	. A
C39	C41	0.01799	. A
C39	H42	0.01439	. A
C40	C41	0.01802	. A
C40	H43	0.01438	. A
N47	C48	0.01671	. A
C48	C49	0.01760	. A
C48	N55	0.01703	. A
C49	N50	0.01734	. A
C49	N56	0.01729	. A
N50	C51	0.01748	. A
C51	H52	0.01441	. A
C53	X54	0.01786	. A
C53	N55	0.01707	. A
C53	H57	0.01438	. A
X54	N56	0.01749	. A
