data_1_PM
_symmetry_space_group_name_H-M	'P1'
_cell_length_a	64.965116
_cell_length_b	64.965116
_cell_length_c	64.965116
_cell_angle_alpha	90.000000
_cell_angle_beta	90.000000
_cell_angle_gamma	90.000000
_symmetry_Int_Tables_number 1

loop_
_symmetry_equiv_pos_as_xyz
'x,y,z'

loop_
_atom_site_label
_atom_site_type_symbol
_atom_site_fract_x
_atom_site_fract_y
_atom_site_fract_z
X1	C	0.999430	0.922914	0.000732
C2	C	0.984469	0.939076	0.001394
C3	C	0.985284	0.961781	0.001132
C4	C	0.002186	0.975881	0.000270
C5	C	0.017394	0.959934	0.999469
C6	C	0.016070	0.937229	0.999808
C7	C	0.002663	0.006497	0.997853
C8	C	0.946848	0.962581	0.001594
H9	H	0.969060	0.932796	0.002132
H10	H	0.030909	0.929579	0.999008
C11	C	0.039098	0.968231	0.998069
H12	H	0.039806	0.984439	0.002502
H13	H	0.049411	0.959749	0.008259
H14	H	0.044793	0.966876	0.982306
H15	H	0.944970	0.953253	0.987694
H16	H	0.934842	0.974372	0.001886
H17	H	0.945217	0.952915	0.015293
O18	O	0.966936	0.972571	0.001517
C19	C	0.017948	0.030387	0.999839
C20	C	0.007943	0.057094	0.997792
N21	N	0.989179	0.045811	0.007766
N22	N	0.985469	0.021736	0.005042
C23	C	0.016316	0.086048	0.002702
H24	H	0.972231	0.020058	0.996776
H25	H	0.988963	0.047889	0.023298
H26	H	0.025275	0.029571	0.014985
H27	H	0.003956	0.057909	0.981460
H28	H	0.030586	0.029002	0.988864
H29	H	0.000554	0.006651	0.981167
X30	C	0.012930	0.110261	0.998346
H31	H	0.999507	0.112462	0.988525
H32	H	0.029754	0.084447	0.012523

loop_
_geom_bond_atom_site_label_1
_geom_bond_atom_site_label_2
_geom_bond_distance
_ccdc_geom_bond_type
X1	C2	0.02203	. A
X1	C6	0.02197	. A
C2	C3	0.02272	. A
C2	H9	0.01666	. A
C3	C4	0.02203	. A
C3	O18	0.02129	. A
C4	C5	0.02205	. A
C4	C7	0.03072	. A
C5	C6	0.02275	. A
C5	C11	0.02328	. A
C6	H10	0.01671	. A
C7	C19	0.02843	. A
C7	N22	0.02407	. A
C7	H29	0.01682	. A
C8	H15	0.01684	. A
C8	H16	0.01683	. A
C8	H17	0.01685	. A
C8	O18	0.02243	. A
C11	H12	0.01682	. A
C11	H13	0.01680	. A
C11	H14	0.01681	. A
C19	C20	0.02859	. A
C19	H26	0.01685	. A
C19	H28	0.01680	. A
C20	N21	0.02406	. A
C20	C23	0.03054	. A
C20	H27	0.01683	. A
N21	N22	0.02451	. A
N21	H25	0.01567	. A
N22	H24	0.01570	. A
C23	X30	0.02483	. A
C23	H32	0.01672	. A
X30	H31	0.01678	. A
