data_1_PM
_symmetry_space_group_name_H-M	'P1'
_cell_length_a	51.278922
_cell_length_b	51.278922
_cell_length_c	51.278922
_cell_angle_alpha	90.000000
_cell_angle_beta	90.000000
_cell_angle_gamma	90.000000
_symmetry_Int_Tables_number 1

loop_
_symmetry_equiv_pos_as_xyz
'x,y,z'

loop_
_atom_site_label
_atom_site_type_symbol
_atom_site_fract_x
_atom_site_fract_y
_atom_site_fract_z
X1	C	0.015952	0.900093	0.001449
C2	C	0.993740	0.913958	0.001176
C3	C	0.993955	0.939934	0.000103
C4	C	0.016322	0.953331	0.999264
C5	C	0.038827	0.939758	0.999674
C6	C	0.038398	0.913510	0.000747
C7	C	0.014704	0.979073	0.997431
H8	H	0.975311	0.950153	0.999713
H9	H	0.974804	0.904422	0.001683
H10	H	0.056787	0.902940	0.000981
Cl11	Cl	0.068800	0.955145	0.998660
C12	C	0.010648	0.001772	0.994721
C13	C	0.000956	0.028684	0.989046
O14	O	0.014762	0.051032	0.000649
C15	C	0.969539	0.061348	0.000629
C16	C	0.972640	0.031902	0.998231
C17	C	0.000585	0.098440	0.005427
H18	H	0.969871	0.022853	0.017362
H19	H	0.965931	0.069753	0.981362
H20	H	0.953568	0.066711	0.013676
H21	H	0.958716	0.023516	0.984463
H22	H	0.996158	0.067784	0.032358
C23	C	0.996100	0.070221	0.011180
H24	H	0.001521	0.031434	0.967907
X25	C	0.001404	0.122231	0.002112

loop_
_geom_bond_atom_site_label_1
_geom_bond_atom_site_label_2
_geom_bond_distance
_ccdc_geom_bond_type
X1	C2	0.02619	. A
X1	C6	0.02616	. A
C2	C3	0.02600	. A
C2	H9	0.02121	. A
C3	C4	0.02609	. A
C3	H8	0.02126	. A
C4	C5	0.02628	. A
C4	C7	0.02586	. A
C5	C6	0.02627	. A
C5	Cl11	0.03371	. A
C6	H10	0.02121	. A
C7	C12	0.02322	. A
C12	C13	0.02916	. A
C13	O14	0.02872	. A
C13	C16	0.02994	. A
C13	H24	0.02132	. A
O14	C23	0.02876	. A
C15	C16	0.02971	. A
C15	H19	0.02133	. A
C15	H20	0.02131	. A
C15	C23	0.02992	. A
C16	H18	0.02134	. A
C16	H21	0.02130	. A
C17	C23	0.02915	. A
C17	X25	0.02404	. A
H22	C23	0.02132	. A
