data_1_PM
_symmetry_space_group_name_H-M	'P1'
_cell_length_a	42.426201
_cell_length_b	42.426201
_cell_length_c	42.426201
_cell_angle_alpha	90.000000
_cell_angle_beta	90.000000
_cell_angle_gamma	90.000000
_symmetry_Int_Tables_number 1

loop_
_symmetry_equiv_pos_as_xyz
'x,y,z'

loop_
_atom_site_label
_atom_site_type_symbol
_atom_site_fract_x
_atom_site_fract_y
_atom_site_fract_z
X1	C	0.004381	0.907722	0.001643
C2	C	0.976285	0.921322	0.008360
C3	C	0.973386	0.953284	0.005320
C4	C	0.998606	0.971645	0.996717
C5	C	0.026443	0.956984	0.991130
C6	C	0.029224	0.925471	0.993016
C7	C	0.996131	0.007543	0.992050
C8	C	0.942745	0.967096	0.009892
Br9	Br	0.941495	0.896314	0.022125
H10	H	0.051710	0.914652	0.986911
H11	H	0.047138	0.970254	0.983776
C12	C	0.024887	0.028968	0.995491
N13	N	0.008765	0.057818	0.004306
N14	N	0.980764	0.051195	0.018684
N15	N	0.974895	0.022510	0.015149
C16	C	0.019018	0.088365	0.999899
H17	H	0.040609	0.021543	0.014606
H18	H	0.038252	0.031089	0.973547
H19	H	0.986043	0.011267	0.968432
N20	N	0.917736	0.977844	0.012980
X21	C	0.001317	0.114293	0.003434
H22	H	0.976592	0.112737	0.009798
H23	H	0.043578	0.090086	0.992733

loop_
_geom_bond_atom_site_label_1
_geom_bond_atom_site_label_2
_geom_bond_distance
_ccdc_geom_bond_type
X1	C2	0.03193	. A
X1	C6	0.03173	. A
C2	C3	0.03224	. A
C2	Br9	0.04500	. A
C3	C4	0.03236	. A
C3	C8	0.03392	. A
C4	C5	0.03195	. A
C4	C7	0.03628	. A
C5	C6	0.03169	. A
C5	H11	0.02566	. A
C6	H10	0.02569	. A
C7	C12	0.03602	. A
C7	N15	0.03476	. A
C7	H19	0.02595	. A
C8	N20	0.02739	. A
C12	N13	0.03420	. A
C12	H17	0.02584	. A
C12	H18	0.02578	. A
N13	N14	0.03217	. A
N13	C16	0.03252	. A
N14	N15	0.02949	. A
C16	X21	0.03159	. A
C16	H23	0.02564	. A
X21	H22	0.02558	. A
