data_NewTest_PM
_symmetry_space_group_name_H-M	'P1'
_cell_length_a	28.000000
_cell_length_b	28.000000
_cell_length_c	28.000000
_cell_angle_alpha	90.000000
_cell_angle_beta	90.000000
_cell_angle_gamma	90.000000
_symmetry_Int_Tables_number 1

loop_
_symmetry_equiv_pos_as_xyz
'x,y,z'

loop_
_atom_site_label
_atom_site_type_symbol
_atom_site_fract_x
_atom_site_fract_y
_atom_site_fract_z
X1	C	0.034507	-0.116375	0.000593
C1	C	-0.007636	-0.094375	0.009843
C2	C	-0.010850	-0.046089	0.012271
C3	C	0.028900	-0.019875	0.003700
C4	C	0.070936	-0.041661	-0.005193
C5	C	0.074007	-0.089589	-0.006336
C6	C	0.027650	0.030946	0.004164
C7	C	-0.092707	-0.026946	-0.003121
H1	H	-0.039564	-0.115589	0.016450
H2	H	0.109007	-0.104732	-0.013300
H3	H	0.102971	-0.020411	-0.011193
C8	C	0.030293	0.073768	0.004271
N1	N	0.038721	0.120625	0.004950
N2	N	0.002257	0.144089	-0.004157
N3	N	0.015221	0.191839	-0.001621
X2	N	-0.019743	0.218482	-0.007300
H4	H	-0.115421	-0.056339	0.008914
H5	H	-0.083421	-0.030982	-0.040836
H6	H	-0.113064	0.006268	0.000879
O1	O	-0.052064	-0.023054	0.027021

loop_
_geom_bond_atom_site_label_1
_geom_bond_atom_site_label_2
_geom_bond_distance
_ccdc_geom_bond_type
X1	C1	0.04843	. A
X1	C5	0.04823	. A
C1	C2	0.04845	. A
C1	H1	0.03890	. A
C2	C3	0.04838	. A
C2	O1	0.04947	. A
C3	C4	0.04817	. A
C3	C6	0.05084	. A
C4	C5	0.04804	. A
C4	H3	0.03891	. A
C5	H2	0.03877	. A
C7	H4	0.03905	. A
C7	H5	0.03905	. A
C7	H6	0.03916	. A
C7	O1	0.05075	. A
C8	N1	0.04761	. A
N1	N2	0.04431	. A
N2	N3	0.04954	. A
N3	X2	0.04432	. A
