data_22_PM
_symmetry_space_group_name_H-M	'P1'
_cell_length_a	42.885583
_cell_length_b	42.885583
_cell_length_c	42.885583
_cell_angle_alpha	90.000000
_cell_angle_beta	90.000000
_cell_angle_gamma	90.000000
_symmetry_Int_Tables_number 1

loop_
_symmetry_equiv_pos_as_xyz
'x,y,z'

loop_
_atom_site_label
_atom_site_type_symbol
_atom_site_fract_x
_atom_site_fract_y
_atom_site_fract_z
X1	C	0.035675	0.890817	0.016733
C2	C	0.006481	0.895667	0.006007
C3	C	0.997340	0.924745	0.998312
C4	C	0.016788	0.949229	0.001577
C5	C	0.045958	0.943889	0.011207
C6	C	0.055332	0.915021	0.018389
C7	C	0.003893	0.982247	0.995584
N8	N	0.967983	0.929175	0.987656
N9	N	0.986241	0.871790	0.002439
H10	H	0.078953	0.911570	0.026993
H11	H	0.062117	0.963243	0.014005
O12	O	0.024646	0.008899	0.990594
C13	C	0.985355	0.029092	0.022283
C14	C	0.982697	0.993439	0.022563
C15	C	0.014339	0.069036	0.985977
H16	H	0.990438	0.984089	0.044971
H17	H	0.999183	0.037044	0.042173
H18	H	0.962504	0.040285	0.022796
H19	H	0.958633	0.986141	0.018482
H20	H	0.986241	0.030631	0.972592
C21	C	0.002704	0.035015	0.991620
H22	H	0.989879	0.981104	0.974271
O23	O	0.023713	0.086454	0.013655
C24	C	0.994356	0.121851	0.981873
C25	C	0.986684	0.088273	0.973455
H26	H	0.965092	0.081651	0.985277
H27	H	0.973276	0.135771	0.985254
H28	H	0.008370	0.132274	0.963312
H29	H	0.983466	0.085288	0.948365
H30	H	0.998273	0.123366	0.032309
X31	C	0.013290	0.119123	0.012140
H32	H	0.033483	0.069479	0.969095
H33	H	0.964439	0.875894	0.994022
H34	H	0.984516	0.855258	0.019415
H35	H	0.964532	0.942420	0.968279
H36	H	0.953130	0.910731	0.986327

loop_
_geom_bond_atom_site_label_1
_geom_bond_atom_site_label_2
_geom_bond_distance
_ccdc_geom_bond_type
X1	C2	0.03148	. A
X1	C6	0.03122	. A
C2	C3	0.03144	. A
C2	N9	0.03150	. A
C3	C4	0.03144	. A
C3	N8	0.03154	. A
C4	C5	0.03118	. A
C4	C7	0.03595	. A
C5	C6	0.03119	. A
C5	H11	0.02537	. A
C6	H10	0.02538	. A
C7	O12	0.03415	. A
C7	C14	0.03609	. A
C7	H22	0.02553	. A
N8	H35	0.02372	. A
N8	H36	0.02372	. A
N9	H33	0.02373	. A
N9	H34	0.02376	. A
O12	C21	0.03413	. A
C13	C14	0.03575	. A
C13	H17	0.02550	. A
C13	H18	0.02545	. A
C13	C21	0.03572	. A
C14	H16	0.02549	. A
C14	H19	0.02548	. A
C15	C21	0.03640	. A
C15	O23	0.03402	. A
C15	C25	0.03594	. A
C15	H32	0.02553	. A
H20	C21	0.02554	. A
O23	X31	0.03432	. A
C24	C25	0.03546	. A
C24	H27	0.02549	. A
C24	H28	0.02549	. A
C24	X31	0.03581	. A
C25	H26	0.02549	. A
C25	H29	0.02547	. A
H30	X31	0.02550	. A
