data_24_PM
_symmetry_space_group_name_H-M	'P1'
_cell_length_a	45.615653
_cell_length_b	45.615653
_cell_length_c	45.615653
_cell_angle_alpha	90.000000
_cell_angle_beta	90.000000
_cell_angle_gamma	90.000000
_symmetry_Int_Tables_number 1

loop_
_symmetry_equiv_pos_as_xyz
'x,y,z'

loop_
_atom_site_label
_atom_site_type_symbol
_atom_site_fract_x
_atom_site_fract_y
_atom_site_fract_z
X1	C	0.988937	0.878879	0.994282
C2	C	0.963375	0.890695	0.002766
C3	C	0.959692	0.919852	0.002963
C4	C	0.981702	0.938004	0.995290
C5	C	0.005400	0.925355	0.983430
C6	C	0.009302	0.896614	0.983277
C7	C	0.980803	0.967402	0.999478
H8	H	0.939304	0.928161	0.012083
H9	H	0.945859	0.876862	0.011184
H10	H	0.029778	0.888065	0.974552
H11	H	0.022631	0.938333	0.973631
C12	C	0.955176	0.981936	0.998688
C13	C	0.953751	0.011268	0.999982
C14	C	0.977712	0.028236	0.003730
C15	C	0.001827	0.012474	0.008707
C16	C	0.005071	0.983668	0.005484
C17	C	0.978611	0.058379	0.001977
H18	H	0.932026	0.020169	0.996321
H19	H	0.934745	0.970449	0.994326
C20	C	0.037429	0.974110	0.010746
H21	H	0.020658	0.023194	0.016445
C22	C	0.044685	0.946334	0.028678
H23	H	0.025832	0.938311	0.040955
H24	H	0.052840	0.929081	0.014187
H25	H	0.062464	0.951004	0.044002
H26	H	0.049289	0.991143	0.022671
H27	H	0.048763	0.973474	0.989656
C28	C	0.952809	0.073023	0.000179
C29	C	0.950923	0.101961	0.996737
X30	C	0.975016	0.118337	0.994479
C31	C	0.000621	0.104767	0.996452
C32	C	0.003405	0.075851	0.000311
H33	H	0.929220	0.111694	0.995422
H34	H	0.931763	0.062281	0.001736
C35	C	0.036420	0.067981	0.001253
H36	H	0.020044	0.118402	0.994786
C37	C	0.047557	0.048076	0.976152
H38	H	0.059614	0.060878	0.959952
H39	H	0.029668	0.036873	0.964884
H40	H	0.062442	0.031524	0.985031
H41	H	0.042339	0.059607	0.022912
H42	H	0.050494	0.087295	0.000223

loop_
_geom_bond_atom_site_label_1
_geom_bond_atom_site_label_2
_geom_bond_distance
_ccdc_geom_bond_type
X1	C2	0.02941	. A
X1	C6	0.02916	. A
C2	C3	0.02939	. A
C2	H9	0.02385	. A
C3	C4	0.02954	. A
C3	H8	0.02383	. A
C4	C5	0.02936	. A
C4	C7	0.02971	. A
C5	C6	0.02900	. A
C5	H11	0.02369	. A
C6	H10	0.02384	. A
C7	C12	0.02947	. A
C7	C16	0.02983	. A
C12	C13	0.02940	. A
C12	H19	0.02384	. A
C13	C14	0.02960	. A
C13	H18	0.02376	. A
C14	C15	0.02924	. A
C14	C17	0.03021	. A
C15	C16	0.02917	. A
C15	H21	0.02301	. A
C16	C20	0.03415	. A
C17	C28	0.02972	. A
C17	C32	0.03038	. A
C20	C22	0.03385	. A
C20	H26	0.02394	. A
C20	H27	0.02395	. A
C22	H23	0.02389	. A
C22	H24	0.02396	. A
C22	H25	0.02393	. A
C28	C29	0.02920	. A
C28	H34	0.02368	. A
C29	X30	0.02922	. A
C29	H33	0.02382	. A
X30	C31	0.02905	. A
C31	C32	0.02930	. A
C31	H36	0.02379	. A
C32	C35	0.03395	. A
C35	C37	0.03392	. A
C35	H41	0.02396	. A
C35	H42	0.02392	. A
C37	H38	0.02391	. A
C37	H39	0.02393	. A
C37	H40	0.02397	. A
