data_25_PM
_symmetry_space_group_name_H-M	'P1'
_cell_length_a	223.210229
_cell_length_b	223.210229
_cell_length_c	223.210229
_cell_angle_alpha	90.000000
_cell_angle_beta	90.000000
_cell_angle_gamma	90.000000
_symmetry_Int_Tables_number 1

loop_
_symmetry_equiv_pos_as_xyz
'x,y,z'

loop_
_atom_site_label
_atom_site_type_symbol
_atom_site_fract_x
_atom_site_fract_y
_atom_site_fract_z
X1	C	0.996395	0.988341	0.000000
C2	C	0.988120	0.987789	0.000000
C3	C	0.897220	0.976836	0.000000
C4	C	0.995970	0.998277	0.000000
C5	C	0.000356	0.995777	0.000000
C6	C	0.000620	0.990236	0.000000
C7	C	0.996050	0.003192	0.000000
C8	C	0.986275	0.997825	0.000000
C9	C	0.988474	0.987749	0.000000
H10	H	0.005664	0.988264	0.000000
H11	H	0.004992	0.998797	0.000000
N12	N	0.988595	0.987731	0.000000
O13	O	0.000020	0.005414	0.000000
C14	C	0.994200	0.009366	0.000000
C15	C	0.992592	0.005168	0.000000
C16	C	0.998505	0.014594	0.000000
H17	H	0.987381	0.004993	0.000000
H18	H	0.991848	0.014025	0.000000
H19	H	0.987547	0.009433	0.000000
H20	H	0.990410	0.999509	0.000000
H21	H	0.005199	0.009021	0.000000
C22	C	0.998434	0.009469	0.000000
H23	H	0.000544	0.000056	0.000000
C24	C	0.002022	0.017152	0.000000
X25	N	0.000880	0.020772	0.000000
N26	N	0.996619	0.020776	0.000000
N27	N	0.995168	0.017076	0.000000
H28	H	0.007215	0.017999	0.000000
H29	H	0.003505	0.012457	0.000000
H30	H	0.994621	0.013133	0.000000
H31	H	0.222138	0.902408	0.000000
H32	H	0.990383	0.998846	0.000000
H33	H	0.992041	0.997520	0.000000

loop_
_geom_bond_atom_site_label_1
_geom_bond_atom_site_label_2
_geom_bond_distance
_ccdc_geom_bond_type
X1	C2	0.00829	. A
X1	C6	0.00463	. A
C2	C3	0.09156	. A
C2	C9	0.00036	. A
C3	C4	0.10105	. A
C3	C8	0.09150	. A
C4	C5	0.00505	. A
C4	C7	0.00492	. A
C5	C6	0.00555	. A
C5	H11	0.00553	. A
C6	H10	0.00542	. A
C7	O13	0.00455	. A
C7	C15	0.00398	. A
C7	H23	0.00548	. A
C8	H31	0.25443	. A
C8	H32	0.00423	. A
C8	H33	0.00577	. A
C9	N12	0.00012	. A
O13	C22	0.00435	. A
C14	C15	0.00450	. A
C14	H18	0.00522	. A
C14	H19	0.00665	. A
C14	C22	0.00423	. A
C15	H17	0.00521	. A
C15	H20	0.00606	. A
C16	C22	0.00513	. A
C16	C24	0.00435	. A
C16	N27	0.00416	. A
C16	H30	0.00415	. A
H21	C22	0.00678	. A
C24	X25	0.00380	. A
C24	H28	0.00526	. A
C24	H29	0.00492	. A
X25	N26	0.00426	. A
N26	N27	0.00398	. A
