data_27_PM
_symmetry_space_group_name_H-M	'P1'
_cell_length_a	50.894144
_cell_length_b	50.894144
_cell_length_c	50.894144
_cell_angle_alpha	90.000000
_cell_angle_beta	90.000000
_cell_angle_gamma	90.000000
_symmetry_Int_Tables_number 1

loop_
_symmetry_equiv_pos_as_xyz
'x,y,z'

loop_
_atom_site_label
_atom_site_type_symbol
_atom_site_fract_x
_atom_site_fract_y
_atom_site_fract_z
X1	C	0.024101	0.917413	0.006880
C2	C	0.030054	0.936099	0.025507
C3	C	0.022332	0.961819	0.023798
C4	C	0.008421	0.972567	0.003874
C5	C	0.002801	0.954333	0.985424
C6	C	0.010091	0.928534	0.987153
C7	C	0.996298	0.002275	0.005053
H8	H	0.026930	0.974649	0.040283
Cl9	Cl	0.047502	0.929202	0.053939
O10	O	0.000149	0.911263	0.971277
H11	H	0.990325	0.960129	0.969017
H12	H	0.000994	0.897902	0.985129
C13	C	0.011506	0.029685	0.001300
C14	C	0.991838	0.051476	0.989019
N15	N	0.966903	0.036523	0.991908
N16	N	0.973446	0.008347	0.987919
C17	C	0.991111	0.081990	0.998353
H18	H	0.957020	0.997992	0.992890
H19	H	0.960714	0.037368	0.010947
H20	H	0.028286	0.027033	0.988194
H21	H	0.996003	0.051810	0.967956
H22	H	0.018972	0.036268	0.020320
H23	H	0.988320	0.003572	0.024976
X24	C	0.982426	0.104723	0.985286
H25	H	0.974311	0.102326	0.965638
H26	H	0.999147	0.084701	0.017962

loop_
_geom_bond_atom_site_label_1
_geom_bond_atom_site_label_2
_geom_bond_distance
_ccdc_geom_bond_type
X1	C2	0.02705	. A
X1	C6	0.02663	. A
C2	C3	0.02691	. A
C2	Cl9	0.03406	. A
C3	C4	0.02657	. A
C3	H8	0.02139	. A
C4	C5	0.02654	. A
C4	C7	0.03211	. A
C5	C6	0.02686	. A
C5	H11	0.02141	. A
C6	O10	0.02548	. A
C7	C13	0.03157	. A
C7	N16	0.02920	. A
C7	H23	0.02150	. A
O10	H12	0.01926	. A
C13	C14	0.03182	. A
C13	H20	0.02146	. A
C13	H22	0.02147	. A
C14	N15	0.02922	. A
C14	C17	0.03192	. A
C14	H21	0.02147	. A
N15	N16	0.02920	. A
N15	H19	0.02004	. A
N16	H18	0.02004	. A
C17	X24	0.02762	. A
C17	H26	0.02136	. A
X24	H25	0.02139	. A
