data_2_PM
_symmetry_space_group_name_H-M	'P1'
_cell_length_a	44.840505
_cell_length_b	44.840505
_cell_length_c	44.840505
_cell_angle_alpha	90.000000
_cell_angle_beta	90.000000
_cell_angle_gamma	90.000000
_symmetry_Int_Tables_number 1

loop_
_symmetry_equiv_pos_as_xyz
'x,y,z'

loop_
_atom_site_label
_atom_site_type_symbol
_atom_site_fract_x
_atom_site_fract_y
_atom_site_fract_z
X1	C	0.999419	0.899025	0.004246
C2	C	0.970629	0.907834	0.001815
C3	C	0.963737	0.937138	0.001681
C4	C	0.984924	0.957856	0.004135
C5	C	0.013179	0.949047	0.007145
C6	C	0.020606	0.920345	0.007123
C7	C	0.976271	0.990594	0.003443
H8	H	0.940834	0.945568	0.999496
C9	C	0.948952	0.895747	0.999295
C10	C	0.069914	0.921973	0.986360
H11	H	0.031020	0.965193	0.009621
C12	C	0.002341	0.013007	0.001213
N13	N	0.989830	0.043314	0.002640
N14	N	0.974955	0.033926	0.020035
N15	N	0.963537	0.006361	0.017315
C16	C	0.992751	0.073131	0.001057
H17	H	0.013848	0.010019	0.979915
H18	H	0.018911	0.009595	0.019099
H19	H	0.960638	0.994341	0.985022
C20	C	0.968934	0.090526	0.996574
C21	C	0.971431	0.120053	0.995905
X22	C	0.998037	0.133189	0.999407
C23	C	0.022100	0.115838	0.003064
C24	C	0.019424	0.086200	0.003912
H25	H	0.951271	0.133032	0.992493
H26	H	0.946989	0.080580	0.993787
H27	H	0.039272	0.072618	0.007324
H28	H	0.044178	0.125562	0.005829
N29	N	0.926851	0.882946	0.999228
H30	H	0.057425	0.922732	0.965420
H31	H	0.087309	0.904957	0.984732
H32	H	0.080150	0.943628	0.990843
O33	O	0.050333	0.914123	0.010825

loop_
_geom_bond_atom_site_label_1
_geom_bond_atom_site_label_2
_geom_bond_distance
_ccdc_geom_bond_type
X1	C2	0.03021	. A
X1	C6	0.03019	. A
C2	C3	0.03010	. A
C2	C9	0.02495	. A
C3	C4	0.02973	. A
C3	H8	0.02450	. A
C4	C5	0.02975	. A
C4	C7	0.03387	. A
C5	C6	0.02965	. A
C5	H11	0.02419	. A
C6	O33	0.03060	. A
C7	C12	0.03445	. A
C7	N15	0.02456	. A
C7	H19	0.02445	. A
C9	N29	0.02554	. A
C10	H30	0.02439	. A
C10	H31	0.02439	. A
C10	H32	0.02437	. A
C10	O33	0.03230	. A
C12	N13	0.03282	. A
C12	H17	0.02439	. A
C12	H18	0.02462	. A
N13	N14	0.02474	. A
N13	C16	0.03000	. A
N14	N15	0.02996	. A
C16	C20	0.02983	. A
C16	C24	0.02984	. A
C20	C21	0.02964	. A
C20	H26	0.02425	. A
C21	X22	0.02988	. A
C21	H25	0.02422	. A
X22	C23	0.02989	. A
C23	C24	0.02977	. A
C23	H28	0.02428	. A
C24	H27	0.02429	. A
