data_2_PM
_symmetry_space_group_name_H-M	'P1'
_cell_length_a	59.224754
_cell_length_b	59.224754
_cell_length_c	59.224754
_cell_angle_alpha	90.000000
_cell_angle_beta	90.000000
_cell_angle_gamma	90.000000
_symmetry_Int_Tables_number 1

loop_
_symmetry_equiv_pos_as_xyz
'x,y,z'

loop_
_atom_site_label
_atom_site_type_symbol
_atom_site_fract_x
_atom_site_fract_y
_atom_site_fract_z
X1	C	0.996405	0.895815	0.005235
C2	C	0.976008	0.905084	0.002753
C3	C	0.972698	0.927119	0.000423
C4	C	0.990731	0.941235	0.999528
C5	C	0.011939	0.931796	0.998988
C6	C	0.014674	0.909508	0.004036
C7	C	0.987776	0.963996	0.001335
N8	N	0.950799	0.933299	0.001149
H9	H	0.960980	0.894481	0.003293
C10	C	0.035814	0.901809	0.007633
C11	C	0.030917	0.943329	0.992267
C12	C	0.051382	0.934515	0.995037
C13	C	0.053914	0.914202	0.003665
N14	N	0.031086	0.963033	0.980803
H15	H	0.066375	0.943987	0.990157
H16	H	0.070698	0.907296	0.006417
H17	H	0.039562	0.885245	0.014167
H18	H	0.945531	0.947837	0.993720
H19	H	0.938608	0.921463	0.998549
C20	C	0.970571	0.998626	0.993129
C21	C	0.986898	0.010598	0.003614
C22	C	0.002061	0.998221	0.014994
C23	C	0.988570	0.033375	0.002398
H24	H	0.015299	0.005414	0.025362
H25	H	0.957012	0.006613	0.983842
H26	H	0.958160	0.968301	0.981579
H27	H	0.015248	0.967389	0.023943
C28	C	0.970993	0.976085	0.992031
C29	C	0.002213	0.975882	0.014150
H30	H	0.016430	0.971611	0.978186
H31	H	0.043513	0.974532	0.983741
C32	C	0.972800	0.046596	0.992723
N33	N	0.974775	0.068293	0.990157
C34	C	0.992318	0.079167	0.998532
C35	C	0.008646	0.066925	0.008511
C36	C	0.006907	0.044604	0.010064
*37	*	0.996168	0.098298	0.998498
H38	H	0.957012	0.039724	0.986628
H39	H	0.021529	0.036347	0.017257
H40	H	0.023876	0.074743	0.015096
N41	N	0.980398	0.107213	0.005471
C42	C	0.977139	0.128825	0.006130
X43	C	0.994345	0.142097	0.000254
C44	C	0.013070	0.131324	0.993770
C45	C	0.011888	0.108665	0.993044
H46	H	0.027017	0.099902	0.987337
H47	H	0.028401	0.140223	0.988907
H48	H	0.960845	0.135360	0.011499

loop_
_geom_bond_atom_site_label_1
_geom_bond_atom_site_label_2
_geom_bond_distance
_ccdc_geom_bond_type
X1	C2	0.02254	. A
X1	C6	0.02286	. A
C2	C3	0.02240	. A
C2	H9	0.01840	. A
C3	C4	0.02292	. A
C3	N8	0.02277	. A
C4	C5	0.02322	. A
C4	C7	0.02302	. A
C5	C6	0.02302	. A
C5	C11	0.02320	. A
C6	C10	0.02278	. A
C7	C28	0.02268	. A
C7	C29	0.02267	. A
N8	H18	0.01716	. A
N8	H19	0.01719	. A
C10	C13	0.02229	. A
C10	H17	0.01820	. A
C11	C12	0.02245	. A
C11	N14	0.02280	. A
C12	C13	0.02221	. A
C12	H15	0.01839	. A
C13	H16	0.01836	. A
N14	H30	0.01718	. A
N14	H31	0.01718	. A
C20	C21	0.02280	. A
C20	H25	0.01827	. A
C20	C28	0.02257	. A
C21	C22	0.02264	. A
C21	C23	0.02287	. A
C22	H24	0.01829	. A
C22	C29	0.02236	. A
C23	C32	0.02274	. A
C23	C36	0.02283	. A
H26	C28	0.01829	. A
H27	C29	0.01838	. A
C32	N33	0.02194	. A
C32	H38	0.01827	. A
N33	C34	0.02227	. A
C34	C35	0.02272	. A
C34	*37	0.01951	. A
C35	C36	0.02244	. A
C35	H40	0.01834	. A
C36	H39	0.01827	. A
*37	N41	0.01941	. A
*37	C45	0.01960	. A
N41	C42	0.02187	. A
C42	X43	0.02251	. A
C42	H48	0.01836	. A
X43	C44	0.02255	. A
C44	C45	0.02270	. A
C44	H47	0.01838	. A
C45	H46	0.01839	. A
