data_30_PM
_symmetry_space_group_name_H-M	'P1'
_cell_length_a	71.836831
_cell_length_b	71.836831
_cell_length_c	71.836831
_cell_angle_alpha	90.000000
_cell_angle_beta	90.000000
_cell_angle_gamma	90.000000
_symmetry_Int_Tables_number 1

loop_
_symmetry_equiv_pos_as_xyz
'x,y,z'

loop_
_atom_site_label
_atom_site_type_symbol
_atom_site_fract_x
_atom_site_fract_y
_atom_site_fract_z
X1	C	0.009363	0.872739	0.000275
C2	C	0.994064	0.884209	0.000706
C3	C	0.994412	0.903225	0.000804
C4	C	0.009961	0.913804	0.000428
C5	C	0.025204	0.902487	0.999983
C6	C	0.025023	0.883263	0.999927
N7	N	0.009933	0.932903	0.000525
H8	H	0.981021	0.910310	0.001138
H9	H	0.980102	0.878293	0.000999
H10	H	0.038303	0.876038	0.999579
H11	H	0.038777	0.909169	0.999718
N12	N	0.001010	0.949343	0.001152
C13	C	0.006203	0.968345	0.000261
C14	C	0.006008	0.986121	0.998869
C15	C	0.003488	0.007837	0.994373
C16	C	0.013121	0.026407	0.003143
C17	C	0.001957	0.044726	0.995445
N18	N	0.983206	0.035594	0.996572
N19	N	0.984041	0.014853	0.994804
C20	C	0.001512	0.066692	0.004493
H21	H	0.976817	0.011373	0.983111
H22	H	0.977763	0.037390	0.009560
H23	H	0.027821	0.027047	0.999328
H24	H	0.005340	0.046048	0.980661
H25	H	0.012244	0.025822	0.018316
H26	H	0.007469	0.008491	0.979701
O27	O	0.011840	0.084413	0.997059
C28	C	0.983749	0.096928	0.007486
C29	C	0.981800	0.075546	0.003992
H30	H	0.975689	0.073332	0.990224
H31	H	0.985809	0.099517	0.022311
H32	H	0.971276	0.104347	0.002962
H33	H	0.972599	0.069184	0.014307
H34	H	0.996709	0.105266	0.982067
X35	C	0.001010	0.103498	0.996558
H36	H	0.005354	0.065440	0.019165

loop_
_geom_bond_atom_site_label_1
_geom_bond_atom_site_label_2
_geom_bond_distance
_ccdc_geom_bond_type
X1	C2	0.01913	. A
X1	C6	0.01887	. A
C2	C3	0.01902	. A
C2	H9	0.01517	. A
C3	C4	0.01881	. A
C3	H8	0.01515	. A
C4	C5	0.01899	. A
C4	N7	0.01910	. A
C5	C6	0.01923	. A
C5	H11	0.01513	. A
C6	H10	0.01512	. A
N7	N12	0.01872	. A
N12	C13	0.01972	. A
C13	C14	0.01783	. A
C14	C15	0.02232	. A
C15	C16	0.02268	. A
C15	N19	0.02068	. A
C15	H26	0.01522	. A
C16	C17	0.02279	. A
C16	H23	0.01520	. A
C16	H25	0.01521	. A
C17	N18	0.02089	. A
C17	C20	0.02376	. A
C17	H24	0.01522	. A
N18	N19	0.02083	. A
N18	H22	0.01420	. A
N19	H21	0.01418	. A
C20	O27	0.02182	. A
C20	C29	0.02161	. A
C20	H36	0.01522	. A
O27	X35	0.02195	. A
C28	C29	0.02175	. A
C28	H31	0.01519	. A
C28	H32	0.01520	. A
C28	X35	0.02146	. A
C29	H30	0.01522	. A
C29	H33	0.01522	. A
H34	X35	0.01522	. A
