data_31_PM
_symmetry_space_group_name_H-M	'P1'
_cell_length_a	51.784233
_cell_length_b	51.784233
_cell_length_c	51.784233
_cell_angle_alpha	90.000000
_cell_angle_beta	90.000000
_cell_angle_gamma	90.000000
_symmetry_Int_Tables_number 1

loop_
_symmetry_equiv_pos_as_xyz
'x,y,z'

loop_
_atom_site_label
_atom_site_type_symbol
_atom_site_fract_x
_atom_site_fract_y
_atom_site_fract_z
X1	C	0.006176	0.904915	0.997728
C2	C	0.983215	0.916560	0.994232
C3	C	0.980164	0.942185	0.995642
C4	C	0.001117	0.957788	0.000431
C5	C	0.024444	0.945681	0.005336
C6	C	0.026375	0.919920	0.003366
C7	C	0.000653	0.983047	0.991741
H8	H	0.961066	0.950547	0.992919
H9	H	0.966009	0.905186	0.990158
H10	H	0.045030	0.910960	0.006997
N11	N	0.044431	0.960666	0.012327
C12	C	0.988912	0.001547	0.005491
C13	C	0.990457	0.027018	0.997901
H14	H	0.978407	0.996642	0.023025
H15	H	0.011351	0.988049	0.974342
C16	C	0.967825	0.041038	0.996781
C17	C	0.968578	0.066876	0.997573
C18	C	0.990727	0.080026	0.999176
C19	C	0.012838	0.066605	0.000045
C20	C	0.013263	0.040729	0.999427
C21	C	0.990534	0.105575	0.999813
H22	H	0.950387	0.077400	0.996781
H23	H	0.949363	0.031208	0.995391
H24	H	0.031608	0.030533	0.000045
H25	H	0.031184	0.076782	0.001261
X26	C	0.988391	0.129308	0.999774
H27	H	0.040858	0.976095	0.023971
H28	H	0.056635	0.967116	0.998326

loop_
_geom_bond_atom_site_label_1
_geom_bond_atom_site_label_2
_geom_bond_distance
_ccdc_geom_bond_type
X1	C2	0.02598	. A
X1	C6	0.02579	. A
C2	C3	0.02585	. A
C2	H9	0.02102	. A
C3	C4	0.02656	. A
C3	H8	0.02103	. A
C4	C5	0.02674	. A
C4	C7	0.02672	. A
C5	C6	0.02591	. A
C5	N11	0.02594	. A
C6	H10	0.02101	. A
C7	C12	0.02587	. A
C7	H15	0.02103	. A
N11	H27	0.01966	. A
N11	H28	0.01966	. A
C12	C13	0.02662	. A
C12	H14	0.02102	. A
C13	C16	0.02665	. A
C13	C20	0.02665	. A
C16	C17	0.02586	. A
C16	H23	0.02096	. A
C17	C18	0.02581	. A
C17	H22	0.02103	. A
C18	C19	0.02588	. A
C18	C21	0.02556	. A
C19	C20	0.02589	. A
C19	H25	0.02101	. A
C20	H24	0.02100	. A
C21	X26	0.02383	. A
