data_33_PM
_symmetry_space_group_name_H-M	'P1'
_cell_length_a	51.420485
_cell_length_b	51.420485
_cell_length_c	51.420485
_cell_angle_alpha	90.000000
_cell_angle_beta	90.000000
_cell_angle_gamma	90.000000
_symmetry_Int_Tables_number 1

loop_
_symmetry_equiv_pos_as_xyz
'x,y,z'

loop_
_atom_site_label
_atom_site_type_symbol
_atom_site_fract_x
_atom_site_fract_y
_atom_site_fract_z
X1	C	0.008242	0.871183	0.994435
C2	C	0.983893	0.879915	0.997255
C3	C	0.978798	0.905372	0.998928
C4	C	0.998635	0.922447	0.997839
C5	C	0.022711	0.913676	0.993521
C6	C	0.027514	0.888492	0.991965
C7	C	0.994356	0.951385	0.002039
N8	N	0.954002	0.913151	0.001961
H9	H	0.967849	0.866166	0.998850
H10	H	0.047603	0.882755	0.988854
H11	H	0.039183	0.926745	0.991810
C12	C	0.018918	0.966535	0.010888
N13	N	0.010186	0.991641	0.021662
N14	N	0.996340	0.979914	0.033252
N15	N	0.985644	0.960486	0.019445
C16	C	0.005655	0.010544	0.000347
H17	H	0.030820	0.955352	0.024948
H18	H	0.031617	0.969957	0.994105
H19	H	0.985857	0.960350	0.984770
H20	H	0.949938	0.931373	0.008593
H21	H	0.940292	0.900744	0.009060
O22	O	0.026153	0.029681	0.001514
C23	C	0.989047	0.048078	0.022070
C24	C	0.980393	0.025849	0.004315
C25	C	0.020746	0.075246	0.991868
H26	H	0.973703	0.032831	0.985450
H27	H	0.989591	0.041018	0.042101
H28	H	0.975959	0.064744	0.021448
H29	H	0.964776	0.014259	0.012852
H30	H	0.029245	0.058288	0.029810
C31	C	0.017071	0.053815	0.012949
H32	H	0.006161	0.000898	0.981250
O33	O	0.031462	0.098136	0.004353
C34	C	0.992314	0.112566	0.987940
C35	C	0.996359	0.085223	0.977127
H36	H	0.978837	0.073613	0.979033
H37	H	0.981890	0.125109	0.974346
H38	H	0.981676	0.111613	0.006376
H39	H	0.000910	0.086467	0.956396
H40	H	0.030139	0.124721	0.974015
X41	C	0.020494	0.121162	0.992666
H42	H	0.035021	0.068498	0.977594

loop_
_geom_bond_atom_site_label_1
_geom_bond_atom_site_label_2
_geom_bond_distance
_ccdc_geom_bond_type
X1	C2	0.02602	. A
X1	C6	0.02602	. A
C2	C3	0.02602	. A
C2	H9	0.02119	. A
C3	C4	0.02620	. A
C3	N8	0.02616	. A
C4	C5	0.02599	. A
C4	C7	0.02955	. A
C5	C6	0.02569	. A
C5	H11	0.02110	. A
C6	H10	0.02112	. A
C7	C12	0.03018	. A
C7	N15	0.02149	. A
C7	H19	0.02123	. A
N8	H20	0.01981	. A
N8	H21	0.01981	. A
C12	N13	0.02868	. A
C12	H17	0.02155	. A
C12	H18	0.02132	. A
N13	N14	0.02153	. A
N13	C16	0.02885	. A
N14	N15	0.02612	. A
C16	O22	0.02807	. A
C16	C24	0.02980	. A
C16	H32	0.02140	. A
O22	C31	0.02821	. A
C23	C24	0.02974	. A
C23	H27	0.02125	. A
C23	H28	0.02120	. A
C23	C31	0.03002	. A
C24	H26	0.02120	. A
C24	H29	0.02124	. A
C25	C31	0.03029	. A
C25	O33	0.02819	. A
C25	C35	0.03019	. A
C25	H42	0.02129	. A
H30	C31	0.02127	. A
O33	X41	0.02806	. A
C34	C35	0.02968	. A
C34	H37	0.02123	. A
C34	H38	0.02131	. A
C34	X41	0.02984	. A
C35	H36	0.02111	. A
C35	H39	0.02126	. A
H40	X41	0.02130	. A
