data_38_PM
_symmetry_space_group_name_H-M	'P1'
_cell_length_a	33.306906
_cell_length_b	33.306906
_cell_length_c	33.306906
_cell_angle_alpha	90.000000
_cell_angle_beta	90.000000
_cell_angle_gamma	90.000000
_symmetry_Int_Tables_number 1

loop_
_symmetry_equiv_pos_as_xyz
'x,y,z'

loop_
_atom_site_label
_atom_site_type_symbol
_atom_site_fract_x
_atom_site_fract_y
_atom_site_fract_z
X1	C	0.991034	0.941505	0.998206
C2	C	0.952634	0.955947	0.999557
C3	C	0.945578	0.995428	0.998176
C4	C	0.974221	0.023080	0.995143
C5	C	0.012291	0.009299	0.993492
C6	C	0.020758	0.969367	0.995173
N7	N	0.963713	0.060970	0.994363
H8	H	0.914534	0.005726	0.999617
N9	N	0.918797	0.933759	0.002379
C10	C	0.065163	0.957057	0.995263
C11	C	0.048920	0.070337	0.013338
H12	H	0.071348	0.931717	0.014929
H13	H	0.075161	0.949882	0.964849
H14	H	0.084859	0.980536	0.006913
H15	H	0.037901	0.064242	0.043662
H16	H	0.032587	0.095407	0.000037
H17	H	0.080715	0.078233	0.014449
O18	O	0.044206	0.035179	0.988118
H19	H	0.920568	0.903195	0.002439
H20	H	0.894027	0.941505	0.986196
X21	N	0.950983	0.097629	0.993702

loop_
_geom_bond_atom_site_label_1
_geom_bond_atom_site_label_2
_geom_bond_distance
_ccdc_geom_bond_type
X1	C2	0.04105	. A
X1	C6	0.04085	. A
C2	C3	0.04013	. A
C2	N9	0.04056	. A
C3	C4	0.03993	. A
C3	H8	0.03274	. A
C4	C5	0.04052	. A
C4	N7	0.03933	. A
C5	C6	0.04085	. A
C5	O18	0.04144	. A
C6	C10	0.04608	. A
N7	X21	0.03881	. A
N9	H19	0.03062	. A
N9	H20	0.03058	. A
C10	H12	0.03267	. A
C10	H13	0.03281	. A
C10	H14	0.03279	. A
C11	H15	0.03283	. A
C11	H16	0.03274	. A
C11	H17	0.03278	. A
C11	O18	0.04352	. A
