data_39_PM
_symmetry_space_group_name_H-M	'P1'
_cell_length_a	50.006287
_cell_length_b	50.006287
_cell_length_c	50.006287
_cell_angle_alpha	90.000000
_cell_angle_beta	90.000000
_cell_angle_gamma	90.000000
_symmetry_Int_Tables_number 1

loop_
_symmetry_equiv_pos_as_xyz
'x,y,z'

loop_
_atom_site_label
_atom_site_type_symbol
_atom_site_fract_x
_atom_site_fract_y
_atom_site_fract_z
X1	C	0.004767	0.896574	0.999636
C2	C	0.979030	0.903933	0.999097
C3	C	0.972171	0.929650	0.000256
C4	C	0.990689	0.949007	0.001956
C5	C	0.016426	0.941548	0.002396
C6	C	0.023385	0.915811	0.001156
C7	C	0.982250	0.978303	0.003716
Br8	Br	0.935216	0.937549	0.999596
H9	H	0.963272	0.888995	0.997857
H10	H	0.044562	0.910872	0.001616
H11	H	0.032224	0.956426	0.003836
C12	C	0.003307	0.999741	0.996297
N13	N	0.989369	0.024978	0.989318
N14	N	0.972451	0.012959	0.981739
N15	N	0.968372	0.995261	0.001516
C16	C	0.995168	0.047295	0.007995
H17	H	0.017046	0.002860	0.013095
H18	H	0.015266	0.992962	0.979159
H19	H	0.973291	0.982623	0.023194
C20	C	0.021405	0.062473	0.001796
N21	N	0.015746	0.091149	0.997457
N22	N	0.998408	0.086570	0.984538
N23	N	0.988649	0.067072	0.000396
C24	C	0.031164	0.114506	0.997057
H25	H	0.034863	0.060493	0.018974
H26	H	0.031824	0.053754	0.984458
H27	H	0.977291	0.059433	0.012415
X28	C	0.022385	0.137203	0.999476

loop_
_geom_bond_atom_site_label_1
_geom_bond_atom_site_label_2
_geom_bond_distance
_ccdc_geom_bond_type
X1	C2	0.02677	. A
X1	C6	0.02681	. A
C2	C3	0.02664	. A
C2	H9	0.02175	. A
C3	C4	0.02684	. A
C3	Br8	0.03780	. A
C4	C5	0.02680	. A
C4	C7	0.03054	. A
C5	C6	0.02669	. A
C5	H11	0.02175	. A
C6	H10	0.02175	. A
C7	C12	0.03095	. A
C7	N15	0.02202	. A
C7	H19	0.02187	. A
C12	N13	0.02966	. A
C12	H17	0.02192	. A
C12	H18	0.02197	. A
N13	N14	0.02209	. A
N13	C16	0.02967	. A
N14	N15	0.02685	. A
C16	C20	0.03094	. A
C16	N23	0.02217	. A
C16	H27	0.02206	. A
C20	N21	0.02955	. A
C20	H25	0.02191	. A
C20	H26	0.02203	. A
N21	N22	0.02210	. A
N21	C24	0.02799	. A
N22	N23	0.02696	. A
C24	X28	0.02446	. A
