data_3_PM
_symmetry_space_group_name_H-M	'P1'
_cell_length_a	65.015064
_cell_length_b	65.015064
_cell_length_c	65.015064
_cell_angle_alpha	90.000000
_cell_angle_beta	90.000000
_cell_angle_gamma	90.000000
_symmetry_Int_Tables_number 1

loop_
_symmetry_equiv_pos_as_xyz
'x,y,z'

loop_
_atom_site_label
_atom_site_type_symbol
_atom_site_fract_x
_atom_site_fract_y
_atom_site_fract_z
X1	C	0.017970	0.895620	0.998318
C2	C	0.998436	0.900649	0.999302
C3	C	0.990730	0.919799	0.000609
C4	C	0.003035	0.937856	0.000763
C5	C	0.023276	0.931950	0.000363
C6	C	0.030536	0.912108	0.999394
C7	C	0.999328	0.959359	0.000932
O8	O	0.970535	0.914800	0.001394
H9	H	0.987931	0.887422	0.999133
H10	H	0.047055	0.909617	0.998795
H11	H	0.034904	0.943978	0.000579
C12	C	0.998236	0.978585	0.000210
C13	C	0.996790	0.003672	0.995872
C14	C	0.007895	0.024544	0.005747
C15	C	0.997221	0.046170	0.996810
N16	N	0.976164	0.036587	0.996826
N17	N	0.975980	0.013408	0.994795
C18	C	0.996959	0.071364	0.006470
H19	H	0.968643	0.010101	0.981352
H20	H	0.969243	0.038987	0.010684
H21	H	0.024338	0.024467	0.002332
H22	H	0.001943	0.047415	0.980706
H23	H	0.006296	0.024144	0.022481
H24	H	0.002312	0.004256	0.979983
H25	H	0.970535	0.898035	0.001148
C26	C	0.006003	0.094928	0.997656
X27	N	0.998036	0.118430	0.003117
N28	N	0.987731	0.106140	0.009008
N29	N	0.987746	0.085361	0.009792
H30	H	0.022492	0.095081	0.001517
H31	H	0.006357	0.093974	0.980691
H32	H	0.995344	0.071195	0.023220

loop_
_geom_bond_atom_site_label_1
_geom_bond_atom_site_label_2
_geom_bond_distance
_ccdc_geom_bond_type
X1	C2	0.02020	. A
X1	C6	0.02076	. A
C2	C3	0.02068	. A
C2	H9	0.01689	. A
C3	C4	0.02185	. A
C3	O8	0.02082	. A
C4	C5	0.02109	. A
C4	C7	0.02182	. A
C5	C6	0.02115	. A
C5	H11	0.01673	. A
C6	H10	0.01672	. A
C7	C12	0.01927	. A
O8	H25	0.01677	. A
C12	C13	0.02550	. A
C13	C14	0.02562	. A
C13	N17	0.02300	. A
C13	H24	0.01683	. A
C14	C15	0.02572	. A
C14	H21	0.01679	. A
C14	H23	0.01682	. A
C15	N16	0.02313	. A
C15	C18	0.02698	. A
C15	H22	0.01683	. A
N16	N17	0.02327	. A
N16	H20	0.01568	. A
N17	H19	0.01567	. A
C18	C26	0.02673	. A
C18	N29	0.01708	. A
C18	H32	0.01683	. A
C26	X27	0.02541	. A
C26	H30	0.01694	. A
C26	H31	0.01700	. A
X27	N28	0.01709	. A
N28	N29	0.02079	. A
