data_3_PM
_symmetry_space_group_name_H-M	'P1'
_cell_length_a	64.037727
_cell_length_b	64.037727
_cell_length_c	64.037727
_cell_angle_alpha	90.000000
_cell_angle_beta	90.000000
_cell_angle_gamma	90.000000
_symmetry_Int_Tables_number 1

loop_
_symmetry_equiv_pos_as_xyz
'x,y,z'

loop_
_atom_site_label
_atom_site_type_symbol
_atom_site_fract_x
_atom_site_fract_y
_atom_site_fract_z
X1	C	0.006936	0.876438	0.008291
C2	C	0.986807	0.882106	0.006558
C3	C	0.981795	0.901798	0.002779
C4	C	0.996052	0.916789	0.999640
C5	C	0.016384	0.910558	0.998485
C6	C	0.022005	0.891101	0.004715
C7	C	0.989540	0.937043	0.999687
H8	H	0.965211	0.905030	0.003482
F9	F	0.970598	0.868942	0.008854
C10	C	0.042743	0.887369	0.007073
C11	C	0.031547	0.922817	0.990333
C12	C	0.051660	0.917991	0.991223
C13	C	0.057328	0.900533	0.000515
H14	H	0.027955	0.937339	0.982354
H15	H	0.063356	0.928548	0.984868
H16	H	0.073787	0.896629	0.002170
H17	H	0.048849	0.873377	0.014382
C18	C	0.969536	0.943101	0.995861
C19	C	0.963462	0.963137	0.996798
C20	C	0.977688	0.977519	0.001420
C21	C	0.997036	0.972100	0.005590
C22	C	0.991008	0.060532	0.002607
H23	H	0.957512	0.932124	0.991223
H24	H	0.018570	0.949676	0.010868
O25	O	0.009731	0.988575	0.009619
C26	C	0.977032	0.998038	0.002482
C27	C	0.961791	0.011686	0.999703
C28	C	0.996052	0.004503	0.006652
C29	C	0.000768	0.024569	0.006933
C30	C	0.966491	0.032049	0.000359
C31	C	0.986277	0.039545	0.003388
H32	H	0.017102	0.027005	0.009463
H33	H	0.952984	0.041856	0.998126
C34	C	0.002782	0.952377	0.005434
H35	H	0.947424	0.967478	0.993331
H36	H	0.945894	0.006517	0.996751
C37	C	0.976079	0.074555	0.997111
C38	C	0.979343	0.095152	0.995939
C39	C	0.998254	0.102773	0.999999
C40	C	0.013401	0.089671	0.005293
C41	C	0.010169	0.069105	0.006699
H42	H	0.960386	0.070011	0.993050
C43	C	0.045242	0.057659	0.999437
H44	H	0.028798	0.095933	0.008854
C45	C	0.001799	0.123292	0.998938
C46	C	0.967397	0.128914	0.990208
X47	C	0.986417	0.136690	0.994206
C48	C	0.963930	0.108348	0.990895
H49	H	0.017430	0.129007	0.002311
H50	H	0.954545	0.139220	0.986086
H51	H	0.948393	0.102461	0.987429
H52	H	0.053050	0.042605	0.001530
H53	H	0.056126	0.070198	0.003326
H54	H	0.040135	0.059111	0.983212
O55	O	0.027409	0.058502	0.013460

loop_
_geom_bond_atom_site_label_1
_geom_bond_atom_site_label_2
_geom_bond_distance
_ccdc_geom_bond_type
X1	C2	0.02098	. A
X1	C6	0.02133	. A
C2	C3	0.02067	. A
C2	F9	0.02101	. A
C3	C4	0.02092	. A
C3	H8	0.01691	. A
C4	C5	0.02130	. A
C4	C7	0.02127	. A
C5	C6	0.02119	. A
C5	C11	0.02113	. A
C6	C10	0.02120	. A
C7	C18	0.02125	. A
C7	C34	0.02106	. A
C10	C13	0.02071	. A
C10	H17	0.01693	. A
C11	C12	0.02070	. A
C11	H14	0.01696	. A
C12	C13	0.02057	. A
C12	H15	0.01699	. A
C13	H16	0.01700	. A
C18	C19	0.02096	. A
C18	H23	0.01693	. A
C19	C20	0.02075	. A
C19	H35	0.01697	. A
C20	C21	0.02052	. A
C20	C26	0.02056	. A
C21	O25	0.02119	. A
C21	C34	0.02054	. A
C22	C31	0.02153	. A
C22	C37	0.02121	. A
C22	C41	0.02139	. A
H24	C34	0.01691	. A
O25	C28	0.02120	. A
C26	C27	0.02065	. A
C26	C28	0.02052	. A
C27	C30	0.02091	. A
C27	H36	0.01697	. A
C28	C29	0.02061	. A
C29	C31	0.02114	. A
C29	H32	0.01671	. A
C30	C31	0.02137	. A
C30	H33	0.01684	. A
C37	C38	0.02089	. A
C37	H42	0.01684	. A
C38	C39	0.02079	. A
C38	C48	0.02091	. A
C39	C40	0.02072	. A
C39	C45	0.02085	. A
C40	C41	0.02087	. A
C40	H44	0.01700	. A
C41	O55	0.02134	. A
C43	H52	0.01709	. A
C43	H53	0.01705	. A
C43	H54	0.01707	. A
C43	O55	0.02270	. A
C45	X47	0.02094	. A
C45	H49	0.01698	. A
C46	X47	0.02093	. A
C46	C48	0.02087	. A
C46	H50	0.01698	. A
C48	H51	0.01697	. A
