data_3_PM
_symmetry_space_group_name_H-M	'P1'
_cell_length_a	32.036329
_cell_length_b	32.036329
_cell_length_c	32.036329
_cell_angle_alpha	90.000000
_cell_angle_beta	90.000000
_cell_angle_gamma	90.000000
_symmetry_Int_Tables_number 1

loop_
_symmetry_equiv_pos_as_xyz
'x,y,z'

loop_
_atom_site_label
_atom_site_type_symbol
_atom_site_fract_x
_atom_site_fract_y
_atom_site_fract_z
X_C1	X_C	0.001530	0.078536	-0.002653
C1	C	-0.034648	0.101104	-0.002622
C2	C	-0.033275	0.143962	-0.001186
C3	C	0.003839	0.165031	-0.001405
C4	C	0.039018	0.141620	-0.001873
C5	C	0.037832	0.099824	-0.002216
C6	C	0.010644	0.210823	-0.000156
C7	C	-0.072043	0.166155	0.001217
Br1	Br	-0.088462	0.074634	-0.004682
F1	F	0.075009	0.079847	-0.002029
H1	H	0.069827	0.156073	-0.001686
N1	N	-0.103664	0.183854	0.003746
X_C2	X_C	-0.016887	0.242319	-0.003371
H2	H	-0.050068	0.238760	-0.007772
H3	H	0.043295	0.220250	0.003683

loop_
_geom_bond_atom_site_label_1
_geom_bond_atom_site_label_2
_geom_bond_distance
X_C1	C1	0.04264
X_C1	C5	0.04209
C1	C2	0.04290
C1	Br1	0.06001
C2	C3	0.04268
C2	C7	0.04474
C3	C4	0.04226
C3	C6	0.04631
C4	C5	0.04181
C4	H1	0.03403
C5	F1	0.04220
C6	X_C2	0.04196
C6	H3	0.03420
C7	N1	0.03632
X_C2	H2	0.03366
