data_40_PM
_symmetry_space_group_name_H-M	'P1'
_cell_length_a	42.541802
_cell_length_b	42.541802
_cell_length_c	42.541802
_cell_angle_alpha	90.000000
_cell_angle_beta	90.000000
_cell_angle_gamma	90.000000
_symmetry_Int_Tables_number 1

loop_
_symmetry_equiv_pos_as_xyz
'x,y,z'

loop_
_atom_site_label
_atom_site_type_symbol
_atom_site_fract_x
_atom_site_fract_y
_atom_site_fract_z
X1	C	0.012081	0.904508	0.998927
C2	C	0.984955	0.920798	0.994767
C3	C	0.984085	0.952085	0.995542
C4	C	0.010788	0.969197	0.001137
C5	C	0.038314	0.952884	0.004663
C6	C	0.038620	0.921385	0.003629
C7	C	0.006792	0.000437	0.993944
H8	H	0.961637	0.963979	0.991946
F9	F	0.956865	0.907399	0.989243
Cl10	Cl	0.075407	0.904766	0.008988
H11	H	0.060034	0.965836	0.008518
C12	C	0.988857	0.018184	0.012561
C13	C	0.976916	0.050952	0.004663
H14	H	0.978561	0.008006	0.033670
H15	H	0.016195	0.009910	0.972130
C16	C	0.001127	0.077867	0.002030
X17	N	0.984908	0.106309	0.990277
N18	N	0.970005	0.091406	0.975021
N19	N	0.963235	0.062541	0.985952
H20	H	0.011729	0.082639	0.024949
H21	H	0.020308	0.071379	0.985928
H22	H	0.958581	0.057534	0.021517

loop_
_geom_bond_atom_site_label_1
_geom_bond_atom_site_label_2
_geom_bond_distance
_ccdc_geom_bond_type
X1	C2	0.03191	. A
X1	C6	0.03180	. A
C2	C3	0.03131	. A
C2	F9	0.03161	. A
C3	C4	0.03221	. A
C3	H8	0.02566	. A
C4	C5	0.03219	. A
C4	C7	0.03231	. A
C5	C6	0.03152	. A
C5	H11	0.02558	. A
C6	Cl10	0.04072	. A
C7	C12	0.03136	. A
C7	H15	0.02557	. A
C12	C13	0.03576	. A
C12	H14	0.02560	. A
C13	C16	0.03630	. A
C13	N19	0.02591	. A
C13	H22	0.02576	. A
C16	X17	0.03479	. A
C16	H20	0.02570	. A
C16	H21	0.02587	. A
X17	N18	0.02602	. A
N18	N19	0.03160	. A
