data_42_PM
_symmetry_space_group_name_H-M	'P1'
_cell_length_a	50.444025
_cell_length_b	50.444025
_cell_length_c	50.444025
_cell_angle_alpha	90.000000
_cell_angle_beta	90.000000
_cell_angle_gamma	90.000000
_symmetry_Int_Tables_number 1

loop_
_symmetry_equiv_pos_as_xyz
'x,y,z'

loop_
_atom_site_label
_atom_site_type_symbol
_atom_site_fract_x
_atom_site_fract_y
_atom_site_fract_z
X1	C	0.003230	0.898041	0.999792
C2	C	0.979639	0.910451	0.999713
C3	C	0.977617	0.936975	0.000069
C4	C	0.000157	0.952715	0.000268
C5	C	0.024322	0.939473	0.000922
C6	C	0.024858	0.913028	0.000426
C7	C	0.003904	0.979953	0.997829
H8	H	0.957932	0.945876	0.000129
H9	H	0.961262	0.899052	0.999435
H10	H	0.044067	0.903413	0.000763
F11	F	0.048091	0.951447	0.002191
C12	C	0.983822	0.997101	0.997056
C13	C	0.985586	0.027352	0.993805
H14	H	0.963542	0.989984	0.998662
H15	H	0.023609	0.988418	0.996263
C16	C	0.012785	0.042478	0.999455
N17	N	0.011952	0.072789	0.000050
N18	N	0.991474	0.068011	0.004807
N19	N	0.976864	0.046126	0.000743
C20	C	0.011278	0.100126	0.000605
H21	H	0.026563	0.036927	0.983596
H22	H	0.021844	0.034648	0.017713
H23	H	0.967368	0.034430	0.003479
X24	C	0.993219	0.120446	0.000624
H25	H	0.972344	0.115133	0.000724
H26	H	0.032668	0.095606	0.000882

loop_
_geom_bond_atom_site_label_1
_geom_bond_atom_site_label_2
_geom_bond_distance
_ccdc_geom_bond_type
X1	C2	0.02666	. A
X1	C6	0.02632	. A
C2	C3	0.02660	. A
C2	H9	0.02163	. A
C3	C4	0.02749	. A
C3	H8	0.02160	. A
C4	C5	0.02756	. A
C4	C7	0.02760	. A
C5	C6	0.02646	. A
C5	F11	0.02664	. A
C6	H10	0.02148	. A
C7	C12	0.02642	. A
C7	H15	0.02150	. A
C12	C13	0.03048	. A
C12	H14	0.02155	. A
C13	C16	0.03163	. A
C13	N19	0.02183	. A
C13	H23	0.02181	. A
C16	N17	0.03033	. A
C16	H21	0.02173	. A
C16	H22	0.02183	. A
N17	N18	0.02156	. A
N17	C20	0.02735	. A
N18	N19	0.02663	. A
C20	X24	0.02719	. A
C20	H26	0.02186	. A
X24	H25	0.02154	. A
