data_44_PM
_symmetry_space_group_name_H-M	'P1'
_cell_length_a	48.700258
_cell_length_b	48.700258
_cell_length_c	48.700258
_cell_angle_alpha	90.000000
_cell_angle_beta	90.000000
_cell_angle_gamma	90.000000
_symmetry_Int_Tables_number 1

loop_
_symmetry_equiv_pos_as_xyz
'x,y,z'

loop_
_atom_site_label
_atom_site_type_symbol
_atom_site_fract_x
_atom_site_fract_y
_atom_site_fract_z
X1	C	0.017670	0.883343	0.999217
C2	C	0.993337	0.895745	0.001435
C3	C	0.991037	0.922994	0.001004
C4	C	0.012700	0.940304	0.998273
C5	C	0.037136	0.927039	0.996178
C6	C	0.039579	0.899606	0.996630
C7	C	0.009518	0.968517	0.997739
H8	H	0.970093	0.929688	0.003714
H9	H	0.974590	0.883815	0.003817
H10	H	0.059928	0.890632	0.994597
H11	H	0.056335	0.937675	0.993365
C12	C	0.984138	0.979626	0.996281
C13	C	0.978697	0.006505	0.995870
C14	C	0.999169	0.024944	0.996692
C15	C	0.024815	0.015047	0.997862
C16	C	0.030093	0.987511	0.998458
C17	C	0.992187	0.056053	0.996322
C18	C	0.948491	0.014780	0.993653
H19	H	0.966007	0.967100	0.994762
C20	C	0.052947	0.986874	0.000182
H21	H	0.041017	0.030734	0.998375
N22	N	0.074692	0.985211	0.009012
C23	C	0.014343	0.079050	0.996055
X24	C	0.000421	0.103588	0.011414
N25	N	0.972475	0.093629	0.017595
N26	N	0.975842	0.064081	0.020449
H27	H	0.956561	0.055991	0.019936
H28	H	0.960812	0.095683	0.000367
H29	H	0.032741	0.073116	0.007390
H30	H	0.011140	0.106627	0.030922
H31	H	0.020175	0.084245	0.975029
H32	H	0.979703	0.059810	0.978027
H33	H	0.935617	0.997860	0.986527
H34	H	0.945370	0.031556	0.979156
H35	H	0.940627	0.021022	0.013694

loop_
_geom_bond_atom_site_label_1
_geom_bond_atom_site_label_2
_geom_bond_distance
_ccdc_geom_bond_type
X1	C2	0.02740	. A
X1	C6	0.02741	. A
C2	C3	0.02735	. A
C2	H9	0.02235	. A
C3	C4	0.02786	. A
C3	H8	0.02215	. A
C4	C5	0.02788	. A
C4	C7	0.02840	. A
C5	C6	0.02755	. A
C5	H11	0.02213	. A
C6	H10	0.02233	. A
C7	C12	0.02774	. A
C7	C16	0.02801	. A
C12	C13	0.02743	. A
C12	H19	0.02209	. A
C13	C14	0.02756	. A
C13	C18	0.03140	. A
C14	C15	0.02752	. A
C14	C17	0.03188	. A
C15	C16	0.02804	. A
C15	H21	0.02256	. A
C16	C20	0.02293	. A
C17	C23	0.03194	. A
C17	N26	0.03023	. A
C17	H32	0.02247	. A
C18	H33	0.02242	. A
C18	H34	0.02239	. A
C18	H35	0.02242	. A
C20	N22	0.02353	. A
C23	X24	0.03212	. A
C23	H29	0.02241	. A
C23	H31	0.02243	. A
X24	N25	0.03030	. A
X24	H30	0.02246	. A
N25	N26	0.02988	. A
N25	H28	0.02091	. A
N26	H27	0.02092	. A
