data_45_PM
_symmetry_space_group_name_H-M	'P1'
_cell_length_a	41.685562
_cell_length_b	41.685562
_cell_length_c	41.685562
_cell_angle_alpha	90.000000
_cell_angle_beta	90.000000
_cell_angle_gamma	90.000000
_symmetry_Int_Tables_number 1

loop_
_symmetry_equiv_pos_as_xyz
'x,y,z'

loop_
_atom_site_label
_atom_site_type_symbol
_atom_site_fract_x
_atom_site_fract_y
_atom_site_fract_z
X1	C	0.997852	0.904192	0.007155
C2	C	0.971920	0.921632	0.001182
C3	C	0.973983	0.953153	0.996336
C4	C	0.001811	0.970282	0.997727
C5	C	0.027695	0.951474	0.003389
C6	C	0.025920	0.919689	0.007827
C7	C	0.004425	0.003363	0.994729
H8	H	0.950474	0.962629	0.991754
H9	H	0.948315	0.910429	0.000222
H10	H	0.048038	0.906710	0.012457
H11	H	0.051756	0.960902	0.004828
C12	C	0.979597	0.023633	0.989307
C13	C	0.981132	0.055803	0.990291
C14	C	0.008552	0.070652	0.997248
C15	C	0.034172	0.051605	0.000606
C16	C	0.032325	0.019435	0.999071
N17	N	0.009535	0.101526	0.002501
Cl18	Cl	0.946084	0.078233	0.984845
O19	O	0.950138	0.014470	0.990315
H20	H	0.054731	0.007273	0.003677
H21	H	0.057250	0.062376	0.006243
H22	H	0.949874	0.022098	0.012145
X23	N	0.994422	0.128442	0.006147

loop_
_geom_bond_atom_site_label_1
_geom_bond_atom_site_label_2
_geom_bond_distance
_ccdc_geom_bond_type
X1	C2	0.03182	. A
X1	C6	0.03207	. A
C2	C3	0.03196	. A
C2	H9	0.02615	. A
C3	C4	0.03271	. A
C3	H8	0.02576	. A
C4	C5	0.03249	. A
C4	C7	0.03332	. A
C5	C6	0.03214	. A
C5	H11	0.02588	. A
C6	H10	0.02606	. A
C7	C12	0.03251	. A
C7	C16	0.03249	. A
C12	C13	0.03222	. A
C12	O19	0.03087	. A
C13	C14	0.03195	. A
C13	Cl18	0.04197	. A
C14	C15	0.03210	. A
C14	N17	0.03133	. A
C15	C16	0.03226	. A
C15	H21	0.02608	. A
C16	H20	0.02591	. A
N17	X23	0.03108	. A
O19	H22	0.02313	. A
