data_4_PM
_symmetry_space_group_name_H-M	'P1'
_cell_length_a	48.867116
_cell_length_b	48.867116
_cell_length_c	48.867116
_cell_angle_alpha	90.000000
_cell_angle_beta	90.000000
_cell_angle_gamma	90.000000
_symmetry_Int_Tables_number 1

loop_
_symmetry_equiv_pos_as_xyz
'x,y,z'

loop_
_atom_site_label
_atom_site_type_symbol
_atom_site_fract_x
_atom_site_fract_y
_atom_site_fract_z
X1	C	0.017482	0.882587	0.998721
C2	C	0.993355	0.895827	0.000255
C3	C	0.991882	0.923044	0.999191
C4	C	0.014392	0.938269	0.996142
C5	C	0.038253	0.925192	0.994178
C6	C	0.040238	0.897976	0.995610
N7	N	0.013614	0.964749	0.995979
H8	H	0.971971	0.932805	0.000890
H9	H	0.974222	0.884715	0.002772
Cl10	Cl	0.073143	0.885063	0.993441
H11	H	0.056834	0.937246	0.991988
N12	N	0.997939	0.985253	0.001483
C13	C	0.005818	0.012859	0.994628
C14	C	0.009071	0.031808	0.014723
C15	C	0.996527	0.060232	0.013495
H16	H	0.014760	0.026672	0.035903
H17	H	0.021820	0.005205	0.008379
O18	O	0.013164	0.080655	0.999764
C19	C	0.965995	0.092401	0.994341
C20	C	0.969024	0.061665	0.998536
H21	H	0.952326	0.053029	0.010630
H22	H	0.958301	0.101671	0.013209
H23	H	0.952039	0.097312	0.977602
H24	H	0.970047	0.051371	0.978707
H25	H	0.998881	0.102858	0.966429
X26	C	0.995484	0.102121	0.988530
H27	H	0.993417	0.067415	0.034471

loop_
_geom_bond_atom_site_label_1
_geom_bond_atom_site_label_2
_geom_bond_distance
_ccdc_geom_bond_type
X1	C2	0.02756	. A
X1	C6	0.02765	. A
C2	C3	0.02728	. A
C2	H9	0.02227	. A
C3	C4	0.02735	. A
C3	H8	0.02224	. A
C4	C5	0.02728	. A
C4	N7	0.02649	. A
C5	C6	0.02733	. A
C5	H11	0.02226	. A
C6	Cl10	0.03541	. A
N7	N12	0.02639	. A
N12	C13	0.02951	. A
C13	C14	0.02781	. A
C13	H17	0.02244	. A
C14	C15	0.03109	. A
C14	H16	0.02252	. A
C15	O18	0.02971	. A
C15	C20	0.03134	. A
C15	H27	0.02239	. A
O18	X26	0.02999	. A
C19	C20	0.03117	. A
C19	H22	0.02239	. A
C19	H23	0.02234	. A
C19	X26	0.03159	. A
C20	H21	0.02235	. A
C20	H24	0.02237	. A
H25	X26	0.02237	. A
