data_4_PM
_symmetry_space_group_name_H-M	'P1'
_cell_length_a	75.967876
_cell_length_b	75.967876
_cell_length_c	75.967876
_cell_angle_alpha	90.000000
_cell_angle_beta	90.000000
_cell_angle_gamma	90.000000
_symmetry_Int_Tables_number 1

loop_
_symmetry_equiv_pos_as_xyz
'x,y,z'

loop_
_atom_site_label
_atom_site_type_symbol
_atom_site_fract_x
_atom_site_fract_y
_atom_site_fract_z
X1	C	0.990174	0.893436	0.000000
C2	C	0.977247	0.899202	0.000000
C3	C	0.976721	0.914340	0.000000
C4	C	0.988923	0.922633	0.000000
C5	C	0.001810	0.915288	0.000000
C6	C	0.002587	0.899004	0.000000
C7	C	0.989160	0.937073	0.000000
H8	H	0.965466	0.922712	0.000000
H9	H	0.966545	0.891738	0.000000
C10	C	0.021634	0.893963	0.000000
C11	C	0.015434	0.924160	0.000000
C12	C	0.030388	0.918091	0.000000
C13	C	0.030743	0.900005	0.000000
H14	H	0.014355	0.938337	0.000000
H15	H	0.047290	0.923093	0.000000
H16	H	0.044644	0.890685	0.000000
Br17	Br	0.024083	0.894516	0.000000
O18	O	0.000823	0.943602	0.000000
C19	C	0.983723	0.955212	0.000000
C20	C	0.978998	0.942878	0.000000
C21	C	0.996374	0.970574	0.000000
H22	H	0.963689	0.942365	0.000000
H23	H	0.976813	0.968902	0.000000
H24	H	0.964176	0.955410	0.000000
H25	H	0.972587	0.926253	0.000000
H26	H	0.016040	0.954199	0.000000
C27	C	0.996163	0.955173	0.000000
H28	H	0.002363	0.927859	0.000000
C29	C	0.981196	0.986186	0.000000
N30	N	0.981407	0.001587	0.000000
C31	C	0.997019	0.016765	0.000000
C32	C	0.012209	0.001153	0.000000
C33	C	0.011985	0.985751	0.000000
C34	C	0.997229	0.032166	0.000000
H35	H	0.965571	0.970995	0.000000
H36	H	0.027176	0.970140	0.000000
H37	H	0.027821	0.016330	0.000000
N38	N	0.982052	0.047778	0.000000
C39	C	0.982262	0.063179	0.000000
C40	C	0.997887	0.078370	0.000000
*41	*	0.998098	0.093771	0.000000
C42	C	0.013065	0.062745	0.000000
C43	C	0.014171	0.049752	0.000000
H44	H	0.037351	0.042381	0.000000
H45	H	0.037193	0.070287	0.000000
H46	H	0.958555	0.073618	0.000000
C47	C	0.982052	0.047778	0.000000
N48	N	0.982262	0.063179	0.000000
C49	C	0.997887	0.078370	0.000000
C50	C	0.013065	0.062745	0.000000
C51	C	0.012854	0.047356	0.000000
*52	*	0.998098	0.093771	0.000000
H53	H	0.966440	0.032600	0.000000
H54	H	0.028032	0.031731	0.000000
H55	H	0.028677	0.077935	0.000000
N56	N	0.982921	0.109383	0.000000
C57	C	0.983131	0.124784	0.000000
X58	C	0.998743	0.139961	0.000000
C59	C	0.013934	0.124350	0.000000
C60	C	0.015026	0.111344	0.000000
H61	H	0.038220	0.103973	0.000000
H62	H	0.038049	0.131879	0.000000
H63	H	0.959411	0.135209	0.000000

loop_
_geom_bond_atom_site_label_1
_geom_bond_atom_site_label_2
_geom_bond_distance
_ccdc_geom_bond_type
X1	C2	0.01415	. A
X1	C6	0.01360	. A
C2	C3	0.01515	. A
C2	H9	0.01305	. A
C3	C4	0.01475	. A
C3	H8	0.01403	. A
C4	C5	0.01483	. A
C4	C7	0.01444	. A
C5	C6	0.01630	. A
C5	C11	0.01626	. A
C6	C10	0.01970	. A
C7	O18	0.01337	. A
C7	C20	0.01170	. A
C7	H28	0.01610	. A
C10	C13	0.01093	. A
C10	Br17	0.00251	. A
C11	C12	0.01614	. A
C11	H14	0.01422	. A
C12	C13	0.01809	. A
C12	H15	0.01763	. A
C13	H16	0.01674	. A
O18	C27	0.01247	. A
C19	C20	0.01321	. A
C19	H23	0.01534	. A
C19	H24	0.01955	. A
C19	C27	0.01244	. A
C20	H22	0.01532	. A
C20	H25	0.01782	. A
C21	C27	0.01540	. A
C21	C29	0.02177	. A
C21	C33	0.02177	. A
H26	C27	0.01990	. A
C29	N30	0.01540	. A
C29	H35	0.02179	. A
N30	C31	0.02177	. A
C31	C32	0.02178	. A
C31	C34	0.01540	. A
C32	C33	0.01540	. A
C32	H37	0.02177	. A
C33	H36	0.02178	. A
C34	N38	0.02177	. A
C34	C43	0.02442	. A
C34	C47	0.02177	. A
C34	C51	0.02179	. A
N38	C39	0.01540	. A
C39	C40	0.02179	. A
C39	H46	0.02590	. A
C40	*41	0.01540	. A
C40	C42	0.02178	. A
C42	C43	0.01304	. A
C42	H45	0.02528	. A
C43	H44	0.02432	. A
C47	N48	0.01540	. A
C47	H53	0.02177	. A
N48	C49	0.02179	. A
C49	C50	0.02178	. A
C49	*52	0.01540	. A
C50	C51	0.01539	. A
C50	H55	0.02178	. A
C51	H54	0.02178	. A
*52	N56	0.02177	. A
*52	C60	0.02440	. A
N56	C57	0.01540	. A
C57	X58	0.02177	. A
C57	H63	0.02591	. A
X58	C59	0.02178	. A
C59	C60	0.01305	. A
C59	H62	0.02526	. A
C60	H61	0.02434	. A
