data_50_PM
_symmetry_space_group_name_H-M	'P1'
_cell_length_a	33.150252
_cell_length_b	33.150252
_cell_length_c	33.150252
_cell_angle_alpha	90.000000
_cell_angle_beta	90.000000
_cell_angle_gamma	90.000000
_symmetry_Int_Tables_number 1

loop_
_symmetry_equiv_pos_as_xyz
'x,y,z'

loop_
_atom_site_label
_atom_site_type_symbol
_atom_site_fract_x
_atom_site_fract_y
_atom_site_fract_z
X1	C	0.022827	0.955417	0.001434
C2	C	0.986116	0.974331	0.998840
C3	C	0.983974	0.015115	0.998508
C4	C	0.016674	0.038614	0.000981
C5	C	0.052179	0.019670	0.003726
C6	C	0.055587	0.979339	0.003817
N7	N	0.013868	0.078071	0.000861
F8	F	0.947986	0.033848	0.995491
C9	C	0.945422	0.952039	0.996366
F10	F	0.092872	0.963713	0.006713
H11	H	0.079599	0.037679	0.005929
X12	N	0.999117	0.114239	0.999926
H13	H	0.918937	0.971526	0.996487
H14	H	0.941259	0.932129	0.022248
H15	H	0.943582	0.934271	0.968674

loop_
_geom_bond_atom_site_label_1
_geom_bond_atom_site_label_2
_geom_bond_distance
_ccdc_geom_bond_type
X1	C2	0.04138	. A
X1	C6	0.04063	. A
C2	C3	0.04084	. A
C2	C9	0.04647	. A
C3	C4	0.04034	. A
C3	F8	0.04068	. A
C4	C5	0.04034	. A
C4	N7	0.03956	. A
C5	C6	0.04048	. A
C5	H11	0.03288	. A
C6	F10	0.04053	. A
N7	X12	0.03907	. A
C9	H13	0.03288	. A
C9	H14	0.03292	. A
C9	H15	0.03295	. A
