data_51_PM
_symmetry_space_group_name_H-M	'P1'
_cell_length_a	36.896859
_cell_length_b	36.896859
_cell_length_c	36.896859
_cell_angle_alpha	90.000000
_cell_angle_beta	90.000000
_cell_angle_gamma	90.000000
_symmetry_Int_Tables_number 1

loop_
_symmetry_equiv_pos_as_xyz
'x,y,z'

loop_
_atom_site_label
_atom_site_type_symbol
_atom_site_fract_x
_atom_site_fract_y
_atom_site_fract_z
X1	C	0.026623	0.906918	0.999533
C2	C	0.993260	0.919819	0.002460
C3	C	0.985454	0.955188	0.003328
C4	C	0.011364	0.981775	0.000617
C5	C	0.045405	0.967194	0.998178
C6	C	0.052885	0.931554	0.997745
C7	C	0.006161	0.019475	0.999615
N8	N	0.949868	0.958630	0.008396
H9	H	0.970927	0.900603	0.004602
H10	H	0.080964	0.922854	0.995332
H11	H	0.069716	0.983158	0.995224
H12	H	0.940925	0.975433	0.028371
H13	H	0.934013	0.963996	0.986443
C14	C	0.973990	0.038284	0.996064
C15	C	0.971767	0.075577	0.993246
X16	C	0.002014	0.095498	0.997121
C17	C	0.033399	0.078044	0.000699
C18	C	0.035242	0.041997	0.001485
Cl19	Cl	0.932414	0.100864	0.981185
C20	C	0.944936	0.030587	0.993923
H21	H	0.062778	0.032782	0.005062
H22	H	0.058577	0.093248	0.003382
N23	N	0.917318	0.026522	0.007989

loop_
_geom_bond_atom_site_label_1
_geom_bond_atom_site_label_2
_geom_bond_distance
_ccdc_geom_bond_type
X1	C2	0.03589	. A
X1	C6	0.03605	. A
C2	C3	0.03623	. A
C2	H9	0.02954	. A
C3	C4	0.03722	. A
C3	N8	0.03611	. A
C4	C5	0.03711	. A
C4	C7	0.03807	. A
C5	C6	0.03642	. A
C5	H11	0.02923	. A
C6	H10	0.02949	. A
C7	C14	0.03743	. A
C7	C18	0.03683	. A
N8	H12	0.02759	. A
N8	H13	0.02761	. A
C14	C15	0.03747	. A
C14	C20	0.03013	. A
C15	X16	0.03642	. A
C15	Cl19	0.04831	. A
X16	C17	0.03609	. A
C17	C18	0.03610	. A
C17	H22	0.02954	. A
C18	H21	0.02926	. A
C20	N23	0.03126	. A
