data_52_PM
_symmetry_space_group_name_H-M	'P1'
_cell_length_a	59.992620
_cell_length_b	59.992620
_cell_length_c	59.992620
_cell_angle_alpha	90.000000
_cell_angle_beta	90.000000
_cell_angle_gamma	90.000000
_symmetry_Int_Tables_number 1

loop_
_symmetry_equiv_pos_as_xyz
'x,y,z'

loop_
_atom_site_label
_atom_site_type_symbol
_atom_site_fract_x
_atom_site_fract_y
_atom_site_fract_z
X1	C	0.020045	0.893221	0.001648
C2	C	0.999376	0.900438	0.006715
C3	C	0.993992	0.922424	0.007665
C4	C	0.008761	0.939010	0.003331
C5	C	0.029413	0.931642	0.998264
C6	C	0.034880	0.909639	0.997514
C7	C	0.001193	0.964579	0.004982
C8	C	0.976190	0.924224	0.012566
H9	H	0.986691	0.887770	0.010299
H10	H	0.051933	0.905105	0.993380
H11	H	0.042315	0.943877	0.994764
O12	O	0.016728	0.984132	0.002165
C13	C	0.981291	0.996417	0.989646
C14	C	0.982007	0.970897	0.989030
C15	C	0.008227	0.027904	0.997347
H16	H	0.965922	0.964213	0.994297
H17	H	0.972473	0.003268	0.975245
H18	H	0.972823	0.001934	0.004832
H19	H	0.985574	0.965046	0.972161
H20	H	0.012011	0.002567	0.973044
C21	C	0.005877	0.003451	0.990180
H22	H	0.994576	0.966696	0.021850
N23	N	0.957704	0.925141	0.017183
C24	C	0.007410	0.047623	0.001131
C25	C	0.003193	0.072176	0.007098
C26	C	0.017412	0.092429	0.998364
X27	C	0.002693	0.113414	0.004515
N28	N	0.980407	0.104647	0.998481
N29	N	0.980390	0.080127	0.001714
H30	H	0.969422	0.076877	0.014266
H31	H	0.977773	0.106480	0.981812
H32	H	0.033780	0.093112	0.006315
H33	H	0.003193	0.115398	0.022634
H34	H	0.019679	0.091295	0.980312
H35	H	0.004643	0.072826	0.025251

loop_
_geom_bond_atom_site_label_1
_geom_bond_atom_site_label_2
_geom_bond_distance
_ccdc_geom_bond_type
X1	C2	0.02247	. A
X1	C6	0.02251	. A
C2	C3	0.02266	. A
C2	H9	0.01828	. A
C3	C4	0.02263	. A
C3	C8	0.01855	. A
C4	C5	0.02251	. A
C4	C7	0.02672	. A
C5	C6	0.02268	. A
C5	H11	0.01812	. A
C6	H10	0.01812	. A
C7	O12	0.02513	. A
C7	C14	0.02574	. A
C7	H22	0.01824	. A
C8	N23	0.01908	. A
O12	C21	0.02519	. A
C13	C14	0.02554	. A
C13	H17	0.01822	. A
C13	H18	0.01824	. A
C13	C21	0.02558	. A
C14	H16	0.01820	. A
C14	H19	0.01821	. A
C15	C21	0.02559	. A
C15	C24	0.02010	. A
H20	C21	0.01822	. A
C24	C25	0.02562	. A
C25	C26	0.02624	. A
C25	N29	0.02474	. A
C25	H35	0.01822	. A
C26	X27	0.02636	. A
C26	H32	0.01821	. A
C26	H34	0.01823	. A
X27	N28	0.02470	. A
X27	H33	0.01823	. A
N28	N29	0.02473	. A
N28	H31	0.01697	. A
N29	H30	0.01698	. A
