data_53_PM
_symmetry_space_group_name_H-M	'P1'
_cell_length_a	40.544938
_cell_length_b	40.544938
_cell_length_c	40.544938
_cell_angle_alpha	90.000000
_cell_angle_beta	90.000000
_cell_angle_gamma	90.000000
_symmetry_Int_Tables_number 1

loop_
_symmetry_equiv_pos_as_xyz
'x,y,z'

loop_
_atom_site_label
_atom_site_type_symbol
_atom_site_fract_x
_atom_site_fract_y
_atom_site_fract_z
X1	C	0.991404	0.923067	0.003187
C2	C	0.961881	0.935793	0.011449
C3	C	0.957096	0.968128	0.014853
C4	C	0.981341	0.990030	0.010857
C5	C	0.011579	0.977772	0.003384
C6	C	0.016388	0.944697	0.998994
N7	N	0.974706	0.021575	0.013792
H8	H	0.932407	0.976711	0.021142
H9	H	0.940448	0.920156	0.015469
N10	N	0.046108	0.933154	0.989400
C11	C	0.040707	0.002115	0.001830
C12	C	0.040436	0.025916	0.972135
H13	H	0.016783	0.038470	0.969397
H14	H	0.059230	0.044907	0.975785
H15	H	0.045862	0.012868	0.949247
H16	H	0.064557	0.989684	0.002250
H17	H	0.040485	0.016839	0.024422
H18	H	0.047095	0.911351	0.976944
H19	H	0.061943	0.948742	0.977684
N20	N	0.953643	0.044932	0.019342
C21	C	0.963237	0.078573	0.012608
X22	C	0.944863	0.106666	0.011844
H23	H	0.918719	0.103336	0.017147
H24	H	0.989085	0.084517	0.006837

loop_
_geom_bond_atom_site_label_1
_geom_bond_atom_site_label_2
_geom_bond_distance
_ccdc_geom_bond_type
X1	C2	0.03319	. A
X1	C6	0.03331	. A
C2	C3	0.03286	. A
C2	H9	0.02683	. A
C3	C4	0.03292	. A
C3	H8	0.02688	. A
C4	C5	0.03347	. A
C4	N7	0.03237	. A
C5	C6	0.03371	. A
C5	C11	0.03799	. A
C6	N10	0.03330	. A
N7	N20	0.03194	. A
N10	H18	0.02513	. A
N10	H19	0.02512	. A
C11	C12	0.03806	. A
C11	H16	0.02690	. A
C11	H17	0.02697	. A
C12	H13	0.02692	. A
C12	H14	0.02697	. A
C12	H15	0.02690	. A
N20	C21	0.03563	. A
C21	X22	0.03358	. A
C21	H24	0.02714	. A
X22	H23	0.02688	. A
