data_55_PM
_symmetry_space_group_name_H-M	'P1'
_cell_length_a	54.638990
_cell_length_b	54.638990
_cell_length_c	54.638990
_cell_angle_alpha	90.000000
_cell_angle_beta	90.000000
_cell_angle_gamma	90.000000
_symmetry_Int_Tables_number 1

loop_
_symmetry_equiv_pos_as_xyz
'x,y,z'

loop_
_atom_site_label
_atom_site_type_symbol
_atom_site_fract_x
_atom_site_fract_y
_atom_site_fract_z
X1	C	0.006603	0.909054	0.994874
C2	C	0.986928	0.923787	0.990664
C3	C	0.987459	0.948440	0.992220
C4	C	0.007683	0.961050	0.998443
C5	C	0.027192	0.946280	0.002506
C6	C	0.027156	0.921408	0.000712
N7	N	0.009806	0.985300	0.001462
H8	H	0.970456	0.958195	0.988724
H9	H	0.969248	0.916027	0.985832
C10	C	0.050747	0.907443	0.005434
H11	H	0.044268	0.955138	0.007612
N12	N	0.992766	0.999429	0.992677
C13	C	0.988154	0.025088	0.004134
C14	C	0.002009	0.048551	0.994691
C15	C	0.985830	0.070660	0.004153
N16	N	0.961324	0.060686	0.998552
N17	N	0.962422	0.033690	0.001389
C18	C	0.990680	0.097912	0.995368
H19	H	0.951843	0.029298	0.016104
H20	H	0.957151	0.062992	0.980525
H21	H	0.020622	0.049357	0.001920
H22	H	0.987587	0.070733	0.024084
H23	H	0.002814	0.048533	0.974705
H24	H	0.991559	0.023496	0.023919
H25	H	0.048368	0.894266	0.020277
H26	H	0.056274	0.897432	0.989017
H27	H	0.065773	0.919632	0.010449
X28	C	0.978235	0.118996	0.001956
H29	H	0.962275	0.117312	0.013780
H30	H	0.006767	0.099815	0.983819

loop_
_geom_bond_atom_site_label_1
_geom_bond_atom_site_label_2
_geom_bond_distance
_ccdc_geom_bond_type
X1	C2	0.02494	. A
X1	C6	0.02468	. A
C2	C3	0.02471	. A
C2	H9	0.01990	. A
C3	C4	0.02463	. A
C3	H8	0.01991	. A
C4	C5	0.02480	. A
C4	N7	0.02453	. A
C5	C6	0.02494	. A
C5	H11	0.01990	. A
C6	C10	0.02782	. A
N7	N12	0.02381	. A
C10	H25	0.01999	. A
C10	H26	0.02001	. A
C10	H27	0.01999	. A
N12	C13	0.02848	. A
C13	C14	0.02884	. A
C13	N17	0.02727	. A
C13	H24	0.02014	. A
C14	C15	0.02898	. A
C14	H21	0.01998	. A
C14	H23	0.02000	. A
C15	N16	0.02704	. A
C15	C18	0.02904	. A
C15	H22	0.02001	. A
N16	N17	0.02717	. A
N16	H20	0.01865	. A
N17	H19	0.01865	. A
C18	X28	0.02535	. A
C18	H30	0.01989	. A
X28	H29	0.01993	. A
