data_57_PM
_symmetry_space_group_name_H-M	'P1'
_cell_length_a	35.412816
_cell_length_b	35.412816
_cell_length_c	35.412816
_cell_angle_alpha	90.000000
_cell_angle_beta	90.000000
_cell_angle_gamma	90.000000
_symmetry_Int_Tables_number 1

loop_
_symmetry_equiv_pos_as_xyz
'x,y,z'

loop_
_atom_site_label
_atom_site_type_symbol
_atom_site_fract_x
_atom_site_fract_y
_atom_site_fract_z
X1	C	0.028479	0.910047	0.002932
C2	C	0.993012	0.922697	0.007337
C3	C	0.984512	0.959294	0.012194
C4	C	0.011508	0.985895	0.008777
C5	C	0.047569	0.973809	0.004315
C6	C	0.055306	0.936563	0.002339
C7	C	0.997982	0.027829	0.009172
C8	C	0.943454	0.968754	0.023885
O9	O	0.962910	0.900897	0.004908
H10	H	0.084561	0.927639	0.999233
C11	C	0.081257	0.000409	0.003158
H12	H	0.932723	0.948366	0.044442
H13	H	0.940347	0.995665	0.038427
H14	H	0.924449	0.968105	0.999600
O15	O	0.025430	0.057423	0.001887
C16	C	0.966157	0.079703	0.979212
C17	C	0.968699	0.037006	0.977913
H18	H	0.940489	0.025683	0.982290
H19	H	0.947492	0.087638	0.002508
H20	H	0.955201	0.091563	0.952922
H21	H	0.978921	0.027518	0.950380
H22	H	0.020940	0.098877	0.960489
X23	C	0.007131	0.091506	0.987118
H24	H	0.985952	0.034324	0.036874
H25	H	0.945176	0.921088	0.998611
H26	H	0.079930	0.020967	0.026144
H27	H	0.082471	0.015404	0.976246
H28	H	0.107942	0.985330	0.006687

loop_
_geom_bond_atom_site_label_1
_geom_bond_atom_site_label_2
_geom_bond_distance
_ccdc_geom_bond_type
X1	C2	0.03791	. A
X1	C6	0.03772	. A
C2	C3	0.03788	. A
C2	O9	0.03725	. A
C3	C4	0.03805	. A
C3	C8	0.04373	. A
C4	C5	0.03829	. A
C4	C7	0.04406	. A
C5	C6	0.03809	. A
C5	C11	0.04294	. A
C6	H10	0.03074	. A
C7	O15	0.04102	. A
C7	C17	0.04381	. A
C7	H24	0.03089	. A
C8	H12	0.03088	. A
C8	H13	0.03075	. A
C8	H14	0.03084	. A
O9	H25	0.02760	. A
C11	H26	0.03087	. A
C11	H27	0.03083	. A
C11	H28	0.03085	. A
O15	X23	0.04141	. A
C16	C17	0.04279	. A
C16	H19	0.03089	. A
C16	H20	0.03085	. A
C16	X23	0.04337	. A
C17	H18	0.03071	. A
C17	H21	0.03086	. A
H22	X23	0.03089	. A
