data_58_PM
_symmetry_space_group_name_H-M	'P1'
_cell_length_a	58.645124
_cell_length_b	58.645124
_cell_length_c	58.645124
_cell_angle_alpha	90.000000
_cell_angle_beta	90.000000
_cell_angle_gamma	90.000000
_symmetry_Int_Tables_number 1

loop_
_symmetry_equiv_pos_as_xyz
'x,y,z'

loop_
_atom_site_label
_atom_site_type_symbol
_atom_site_fract_x
_atom_site_fract_y
_atom_site_fract_z
X1	C	0.006656	0.889280	0.000054
C2	C	0.987097	0.901301	0.000139
C3	C	0.986705	0.924133	0.000173
C4	C	0.006826	0.936189	0.000122
C5	C	0.026811	0.923673	0.000002
C6	C	0.026197	0.900909	0.999934
C7	C	0.010612	0.959464	0.999934
H8	H	0.970404	0.933017	0.000258
H9	H	0.970745	0.892571	0.000207
H10	H	0.042311	0.891752	0.999815
H11	H	0.043402	0.931994	0.999883
C12	C	0.996936	0.977983	0.000037
C13	C	0.006298	0.001258	0.999644
H14	H	0.978401	0.976533	0.000343
H15	H	0.028482	0.964290	0.999593
C16	C	0.994822	0.021158	0.999525
C17	C	0.003262	0.044297	0.998996
H18	H	0.976235	0.020646	0.999815
H19	H	0.024816	0.002384	0.999337
C20	C	0.996305	0.063991	0.000071
C21	C	0.985665	0.086858	0.001776
C22	C	0.001046	0.108275	0.999389
X23	N	0.986705	0.128703	0.995381
N24	N	0.972791	0.117670	0.989089
N25	N	0.970267	0.097191	0.999030
H26	H	0.011379	0.110713	0.014752
H27	H	0.012794	0.106177	0.984980
H28	H	0.976031	0.087591	0.017719

loop_
_geom_bond_atom_site_label_1
_geom_bond_atom_site_label_2
_geom_bond_distance
_ccdc_geom_bond_type
X1	C2	0.02296	. A
X1	C6	0.02274	. A
C2	C3	0.02284	. A
C2	H9	0.01854	. A
C3	C4	0.02346	. A
C3	H8	0.01857	. A
C4	C5	0.02358	. A
C4	C7	0.02358	. A
C5	C6	0.02277	. A
C5	H11	0.01856	. A
C6	H10	0.01853	. A
C7	C12	0.02302	. A
C7	H15	0.01851	. A
C12	C13	0.02509	. A
C12	H14	0.01859	. A
C13	C16	0.02297	. A
C13	H19	0.01855	. A
C16	C17	0.02464	. A
C16	H18	0.01860	. A
C17	C20	0.02092	. A
C20	C21	0.02528	. A
C21	C22	0.02648	. A
C21	N25	0.01875	. A
C21	H28	0.01864	. A
C22	X23	0.02528	. A
C22	H26	0.01868	. A
C22	H27	0.01871	. A
X23	N24	0.01884	. A
N24	N25	0.02290	. A
