data_59_PM
_symmetry_space_group_name_H-M	'P1'
_cell_length_a	50.406195
_cell_length_b	50.406195
_cell_length_c	50.406195
_cell_angle_alpha	90.000000
_cell_angle_beta	90.000000
_cell_angle_gamma	90.000000
_symmetry_Int_Tables_number 1

loop_
_symmetry_equiv_pos_as_xyz
'x,y,z'

loop_
_atom_site_label
_atom_site_type_symbol
_atom_site_fract_x
_atom_site_fract_y
_atom_site_fract_z
X1	C	0.023420	0.874543	0.995631
C2	C	0.999613	0.885891	0.995592
C3	C	0.997233	0.912177	0.995056
C4	C	0.018421	0.928643	0.994481
C5	C	0.042287	0.916601	0.993965
C6	C	0.044747	0.890374	0.994620
C7	C	0.016159	0.955525	0.994858
H8	H	0.976878	0.918902	0.994917
H9	H	0.981679	0.873888	0.996227
H10	H	0.064843	0.882538	0.994520
H11	H	0.060896	0.927255	0.993747
C12	C	0.992590	0.967468	0.998528
C13	C	0.989496	0.993734	0.000016
C14	C	0.010783	0.009705	0.997734
C15	C	0.034431	0.998297	0.993568
C16	C	0.037029	0.972051	0.992239
N17	N	0.006398	0.034920	0.000571
C18	C	0.961602	0.005598	0.004499
H19	H	0.974894	0.956041	0.001404
H20	H	0.057086	0.965186	0.988847
H21	H	0.052345	0.010161	0.991584
N22	N	0.025424	0.051208	0.997060
C23	C	0.017349	0.077633	0.007931
O24	O	0.028856	0.100289	0.994739
C25	C	0.985032	0.113482	0.004301
C26	C	0.987174	0.083426	0.005729
H27	H	0.978822	0.075113	0.987497
H28	H	0.974676	0.118918	0.986029
H29	H	0.974240	0.121477	0.021303
H30	H	0.976382	0.075451	0.022751
H31	H	0.020404	0.127528	0.024298
X32	C	0.014016	0.123123	0.004023
H33	H	0.023678	0.078645	0.028822
C34	C	0.937597	0.987902	0.997595
H35	H	0.935732	0.971416	0.011542
H36	H	0.939383	0.980066	0.977459
H37	H	0.919345	0.999547	0.998726
H38	H	0.959876	0.011867	0.025191
H39	H	0.959182	0.023413	0.992398

loop_
_geom_bond_atom_site_label_1
_geom_bond_atom_site_label_2
_geom_bond_distance
_ccdc_geom_bond_type
X1	C2	0.02637	. A
X1	C6	0.02658	. A
C2	C3	0.02640	. A
C2	H9	0.02159	. A
C3	C4	0.02684	. A
C3	H8	0.02144	. A
C4	C5	0.02674	. A
C4	C7	0.02698	. A
C5	C6	0.02635	. A
C5	H11	0.02144	. A
C6	H10	0.02157	. A
C7	C12	0.02668	. A
C7	C16	0.02675	. A
C12	C13	0.02649	. A
C12	H19	0.02126	. A
C13	C14	0.02671	. A
C13	C18	0.03064	. A
C14	C15	0.02658	. A
C14	N17	0.02575	. A
C15	C16	0.02641	. A
C15	H21	0.02158	. A
C16	H20	0.02147	. A
N17	N22	0.02529	. A
C18	C34	0.03061	. A
C18	H38	0.02169	. A
C18	H39	0.02167	. A
N22	C23	0.02969	. A
C23	O24	0.02863	. A
C23	C26	0.03080	. A
C23	H33	0.02185	. A
O24	X32	0.02877	. A
C25	C26	0.03017	. A
C25	H28	0.02169	. A
C25	H29	0.02167	. A
C25	X32	0.03055	. A
C26	H27	0.02171	. A
C26	H30	0.02168	. A
H31	X32	0.02171	. A
C34	H35	0.02167	. A
C34	H36	0.02168	. A
C34	H37	0.02168	. A
