data_5_PM
_symmetry_space_group_name_H-M	'P1'
_cell_length_a	44.275888
_cell_length_b	44.275888
_cell_length_c	44.275888
_cell_angle_alpha	90.000000
_cell_angle_beta	90.000000
_cell_angle_gamma	90.000000
_symmetry_Int_Tables_number 1

loop_
_symmetry_equiv_pos_as_xyz
'x,y,z'

loop_
_atom_site_label
_atom_site_type_symbol
_atom_site_fract_x
_atom_site_fract_y
_atom_site_fract_z
X1	C	0.003557	0.894829	0.000642
C2	C	0.977900	0.912084	0.999174
C3	C	0.979955	0.942598	0.997751
C4	C	0.006629	0.957165	0.997909
C5	C	0.031767	0.940113	0.999038
C6	C	0.030525	0.909690	0.000574
C7	C	0.009678	0.989937	0.995537
H8	H	0.959244	0.955765	0.996283
Br9	Br	0.937426	0.897697	0.998609
Cl10	Cl	0.066029	0.892616	0.002403
H11	H	0.053720	0.951271	0.998925
C12	C	0.989102	0.010784	0.003623
C13	C	0.993010	0.043533	0.001658
H14	H	0.967420	0.003556	0.012657
H15	H	0.031225	0.997549	0.986435
C16	C	0.968211	0.061398	0.000393
C17	C	0.970650	0.091753	0.999490
X18	C	0.998137	0.104876	0.000032
C19	C	0.023026	0.087394	0.001545
C20	C	0.020406	0.057084	0.002516
H21	H	0.950210	0.105305	0.998428
H22	H	0.945693	0.051551	0.000032
H23	H	0.041049	0.043939	0.004188
H24	H	0.045431	0.097513	0.002155

loop_
_geom_bond_atom_site_label_1
_geom_bond_atom_site_label_2
_geom_bond_distance
_ccdc_geom_bond_type
X1	C2	0.03095	. A
X1	C6	0.03079	. A
C2	C3	0.03062	. A
C2	Br9	0.04296	. A
C3	C4	0.03039	. A
C3	H8	0.02459	. A
C4	C5	0.03040	. A
C4	C7	0.03300	. A
C5	C6	0.03049	. A
C5	H11	0.02463	. A
C6	Cl10	0.03944	. A
C7	C12	0.03039	. A
C7	H15	0.02460	. A
C12	C13	0.03304	. A
C12	H14	0.02458	. A
C13	C16	0.03059	. A
C13	C20	0.03058	. A
C16	C17	0.03047	. A
C16	H22	0.02458	. A
C17	X18	0.03046	. A
C17	H21	0.02455	. A
X18	C19	0.03045	. A
C19	C20	0.03044	. A
C19	H24	0.02459	. A
C20	H23	0.02453	. A
