data_5_PM
_symmetry_space_group_name_H-M	'P1'
_cell_length_a	35.729196
_cell_length_b	35.729196
_cell_length_c	35.729196
_cell_angle_alpha	90.000000
_cell_angle_beta	90.000000
_cell_angle_gamma	90.000000
_symmetry_Int_Tables_number 1

loop_
_symmetry_equiv_pos_as_xyz
'x,y,z'

loop_
_atom_site_label
_atom_site_type_symbol
_atom_site_fract_x
_atom_site_fract_y
_atom_site_fract_z
X1	C	0.010749	0.911569	0.990567
C2	C	0.980969	0.933736	0.995549
C3	C	0.982956	0.971296	0.995717
C4	C	0.017354	0.987361	0.991966
C5	C	0.046742	0.964942	0.983626
C6	C	0.043579	0.927914	0.982674
C7	C	0.024435	0.024474	0.996137
C8	C	0.946711	0.993239	0.004841
H9	H	0.954324	0.920357	0.000979
Br10	Br	0.087772	0.901605	0.967980
F11	F	0.080300	0.978741	0.972934
C12	C	0.912650	0.971688	0.020654
H13	H	0.901510	0.952124	0.999971
H14	H	0.919871	0.956490	0.046152
H15	H	0.890231	0.991391	0.027344
H16	H	0.936356	0.006253	0.979232
H17	H	0.952813	0.015433	0.024965
C18	C	0.001484	0.052070	0.984997
C19	C	0.010469	0.087979	0.989615
X20	C	0.042655	0.097635	0.006100
C21	C	0.065382	0.070738	0.018191
C22	C	0.056314	0.035165	0.013293
H23	H	0.991241	0.109138	0.979176
H24	H	0.975959	0.046500	0.969772
H25	H	0.075598	0.014958	0.025300
H26	H	0.091579	0.077204	0.032269

loop_
_geom_bond_atom_site_label_1
_geom_bond_atom_site_label_2
_geom_bond_distance
_ccdc_geom_bond_type
X1	C2	0.03746	. A
X1	C6	0.03751	. A
C2	C3	0.03761	. A
C2	H9	0.03031	. A
C3	C4	0.03815	. A
C3	C8	0.04334	. A
C4	C5	0.03789	. A
C4	C7	0.03801	. A
C5	C6	0.03718	. A
C5	F11	0.03783	. A
C6	Br10	0.05349	. A
C7	C18	0.03758	. A
C7	C22	0.03775	. A
C8	C12	0.04330	. A
C8	H16	0.03054	. A
C8	H17	0.03057	. A
C12	H13	0.03057	. A
C12	H14	0.03055	. A
C12	H15	0.03059	. A
C18	C19	0.03730	. A
C18	H24	0.03024	. A
C19	X20	0.03743	. A
C19	H23	0.03044	. A
X20	C21	0.03723	. A
C21	C22	0.03704	. A
C21	H26	0.03043	. A
C22	H25	0.03040	. A
