data_5_PM
_symmetry_space_group_name_H-M	'P1'
_cell_length_a	42.975548
_cell_length_b	42.975548
_cell_length_c	42.975548
_cell_angle_alpha	90.000000
_cell_angle_beta	90.000000
_cell_angle_gamma	90.000000
_symmetry_Int_Tables_number 1

loop_
_symmetry_equiv_pos_as_xyz
'x,y,z'

loop_
_atom_site_label
_atom_site_type_symbol
_atom_site_fract_x
_atom_site_fract_y
_atom_site_fract_z
X1	C	0.023098	0.903494	0.998197
C2	C	0.998968	0.918060	0.984421
C3	C	0.998014	0.949450	0.982234
C4	C	0.019700	0.966692	0.996987
C5	C	0.044017	0.951847	0.009529
C6	C	0.046274	0.920899	0.009436
C7	C	0.015093	0.000828	0.007434
C8	C	0.972720	0.964319	0.962223
C9	C	0.948800	0.899584	0.996219
H10	H	0.066169	0.910335	0.020931
H11	H	0.062050	0.964901	0.021652
H12	H	0.957898	0.892767	0.019022
H13	H	0.937351	0.922132	0.998476
H14	H	0.931883	0.882226	0.988563
O15	O	0.974047	0.901492	0.973601
O16	O	0.019956	0.028635	0.987982
C17	C	0.980655	0.042177	0.023700
C18	C	0.983494	0.006831	0.023327
C19	C	0.010532	0.088808	0.003130
H20	H	0.963808	0.997361	0.010599
H21	H	0.976653	0.051043	0.047155
H22	H	0.961458	0.049414	0.008621
H23	H	0.983168	0.997128	0.046782
H24	H	0.029194	0.051624	0.029121
C25	C	0.011905	0.053323	0.010506
H26	H	0.032173	0.003713	0.026143
C27	C	0.039177	0.106260	0.992379
X28	N	0.022958	0.135556	0.986167
N29	N	0.992755	0.130088	0.976324
N30	N	0.986309	0.101420	0.982071
H31	H	0.056884	0.108284	0.010553
H32	H	0.048833	0.096557	0.970925
H33	H	0.004971	0.098884	0.025887
H34	H	0.950173	0.964831	0.973811
H35	H	0.979003	0.987914	0.955265
H36	H	0.969858	0.951125	0.940629

loop_
_geom_bond_atom_site_label_1
_geom_bond_atom_site_label_2
_geom_bond_distance
_ccdc_geom_bond_type
X1	C2	0.03137	. A
X1	C6	0.03109	. A
C2	C3	0.03148	. A
C2	O15	0.03182	. A
C3	C4	0.03139	. A
C3	C8	0.03551	. A
C4	C5	0.03113	. A
C4	C7	0.03599	. A
C5	C6	0.03103	. A
C5	H11	0.02535	. A
C6	H10	0.02529	. A
C7	O16	0.03428	. A
C7	C18	0.03588	. A
C7	H26	0.02550	. A
C8	H34	0.02536	. A
C8	H35	0.02539	. A
C8	H36	0.02547	. A
C9	H12	0.02548	. A
C9	H13	0.02539	. A
C9	H14	0.02542	. A
C9	O15	0.03395	. A
O16	C25	0.03438	. A
C17	C18	0.03546	. A
C17	H21	0.02539	. A
C17	H22	0.02546	. A
C17	C25	0.03571	. A
C18	H20	0.02528	. A
C18	H23	0.02539	. A
C19	C25	0.03627	. A
C19	C27	0.03522	. A
C19	N30	0.03449	. A
C19	H33	0.02550	. A
H24	C25	0.02546	. A
C27	X28	0.03406	. A
C27	H31	0.02545	. A
C27	H32	0.02545	. A
X28	N29	0.03223	. A
N29	N30	0.02994	. A
