data_5_PM
_symmetry_space_group_name_H-M	'P1'
_cell_length_a	43.464912
_cell_length_b	43.464912
_cell_length_c	43.464912
_cell_angle_alpha	90.000000
_cell_angle_beta	90.000000
_cell_angle_gamma	90.000000
_symmetry_Int_Tables_number 1

loop_
_symmetry_equiv_pos_as_xyz
'x,y,z'

loop_
_atom_site_label
_atom_site_type_symbol
_atom_site_fract_x
_atom_site_fract_y
_atom_site_fract_z
X1	C	0.010081	0.917489	0.013215
C2	C	0.985072	0.935434	0.015907
C3	C	0.984129	0.963848	0.003276
C4	C	0.011208	0.978964	0.997961
C5	C	0.036976	0.961018	0.997524
C6	C	0.036263	0.930442	0.003069
C7	C	0.013210	0.013842	0.995453
C8	C	0.929280	0.958832	0.992946
F9	F	0.960063	0.925150	0.031413
H10	H	0.057406	0.917742	0.999618
H11	H	0.059454	0.970290	0.991795
H12	H	0.916419	0.965873	0.013238
H13	H	0.915798	0.964331	0.972377
H14	H	0.932409	0.933801	0.992647
O15	O	0.956681	0.976916	0.993498
C16	C	0.988891	0.033720	0.997156
C17	C	0.992549	0.064665	0.999296
C18	C	0.020963	0.077710	0.000147
C19	C	0.044982	0.058177	0.998122
C20	C	0.041278	0.027693	0.995545
N21	N	0.028371	0.107941	0.004334
H22	H	0.972234	0.079205	0.001665
H23	H	0.965263	0.025668	0.998214
H24	H	0.062537	0.014717	0.995315
H25	H	0.068081	0.067357	0.998882
X26	N	0.010403	0.129177	0.997386

loop_
_geom_bond_atom_site_label_1
_geom_bond_atom_site_label_2
_geom_bond_distance
_ccdc_geom_bond_type
X1	C2	0.03090	. A
X1	C6	0.03092	. A
C2	C3	0.03111	. A
C2	F9	0.03117	. A
C3	C4	0.03146	. A
C3	O15	0.03193	. A
C4	C5	0.03140	. A
C4	C7	0.03503	. A
C5	C6	0.03108	. A
C5	H11	0.02498	. A
C6	H10	0.02490	. A
C7	C16	0.03146	. A
C7	C20	0.03130	. A
C8	H12	0.02503	. A
C8	H13	0.02520	. A
C8	H14	0.02523	. A
C8	O15	0.03284	. A
C16	C17	0.03123	. A
C16	H23	0.02499	. A
C17	C18	0.03128	. A
C17	H22	0.02509	. A
C18	C19	0.03103	. A
C18	N21	0.03141	. A
C19	C20	0.03082	. A
C19	H25	0.02487	. A
C20	H24	0.02491	. A
N21	X26	0.02867	. A
