data_60_PM
_symmetry_space_group_name_H-M	'P1'
_cell_length_a	36.796161
_cell_length_b	36.796161
_cell_length_c	36.796161
_cell_angle_alpha	90.000000
_cell_angle_beta	90.000000
_cell_angle_gamma	90.000000
_symmetry_Int_Tables_number 1

loop_
_symmetry_equiv_pos_as_xyz
'x,y,z'

loop_
_atom_site_label
_atom_site_type_symbol
_atom_site_fract_x
_atom_site_fract_y
_atom_site_fract_z
X1	C	0.002721	0.906837	0.012501
C2	C	0.972148	0.921594	0.998505
C3	C	0.967364	0.958201	0.997690
C4	C	0.993128	0.981030	0.011822
C5	C	0.022696	0.964995	0.025927
C6	C	0.027751	0.929176	0.025845
C7	C	0.990302	0.018180	0.012637
C8	C	0.934589	0.971953	0.975432
Cl9	Cl	0.939073	0.893521	0.979509
H10	H	0.052373	0.918414	0.038102
H11	H	0.043459	0.980649	0.039597
H12	H	0.938476	0.999211	0.964507
H13	H	0.909695	0.971491	0.991657
H14	H	0.929806	0.955946	0.950973
C15	C	0.957336	0.033209	0.018589
C16	C	0.951194	0.068865	0.018181
X17	C	0.978181	0.092128	0.012148
C18	C	0.011500	0.078159	0.008126
C19	C	0.018484	0.042177	0.008452
H20	H	0.923664	0.078594	0.022693
H21	H	0.934019	0.016387	0.025057
C22	C	0.058461	0.033182	0.999293
H23	H	0.033812	0.096911	0.003397
C24	C	0.064467	0.006603	0.967306
H25	H	0.040416	0.004809	0.950022
H26	H	0.087214	0.015789	0.950620
H27	H	0.071424	0.979453	0.977063
H28	H	0.073598	0.024621	0.023318
H29	H	0.072647	0.057913	0.991032

loop_
_geom_bond_atom_site_label_1
_geom_bond_atom_site_label_2
_geom_bond_distance
_ccdc_geom_bond_type
X1	C2	0.03672	. A
X1	C6	0.03611	. A
C2	C3	0.03693	. A
C2	Cl9	0.04736	. A
C3	C4	0.03721	. A
C3	C8	0.04194	. A
C4	C5	0.03647	. A
C4	C7	0.03727	. A
C5	C6	0.03617	. A
C5	H11	0.02938	. A
C6	H10	0.02953	. A
C7	C15	0.03672	. A
C7	C19	0.03725	. A
C8	H12	0.02962	. A
C8	H13	0.02972	. A
C8	H14	0.02962	. A
C15	C16	0.03618	. A
C15	H21	0.02947	. A
C16	X17	0.03614	. A
C16	H20	0.02955	. A
X17	C18	0.03635	. A
C18	C19	0.03666	. A
C18	H23	0.02953	. A
C19	C22	0.04199	. A
C22	C24	0.04202	. A
C22	H28	0.02966	. A
C22	H29	0.02968	. A
C24	H25	0.02967	. A
C24	H26	0.02967	. A
C24	H27	0.02968	. A
