data_61_PM
_symmetry_space_group_name_H-M	'P1'
_cell_length_a	43.937623
_cell_length_b	43.937623
_cell_length_c	43.937623
_cell_angle_alpha	90.000000
_cell_angle_beta	90.000000
_cell_angle_gamma	90.000000
_symmetry_Int_Tables_number 1

loop_
_symmetry_equiv_pos_as_xyz
'x,y,z'

loop_
_atom_site_label
_atom_site_type_symbol
_atom_site_fract_x
_atom_site_fract_y
_atom_site_fract_z
X1	C	0.021522	0.891797	0.015225
C2	C	0.993459	0.903246	0.010150
C3	C	0.990410	0.933197	0.005370
C4	C	0.013875	0.952793	0.005461
C5	C	0.041550	0.941413	0.011856
C6	C	0.044850	0.911416	0.016545
C7	C	0.009937	0.985453	0.992465
H8	H	0.967787	0.941186	0.999862
C9	C	0.964737	0.883923	0.006326
H10	H	0.067678	0.902745	0.020938
N11	N	0.066540	0.959029	0.012266
H12	H	0.067200	0.977829	0.998679
H13	H	0.075143	0.965584	0.032727
O14	O	0.013806	0.013470	0.010605
C15	C	0.980828	0.025441	0.969820
C16	C	0.979166	0.991735	0.977353
C17	C	0.001926	0.071780	0.995288
H18	H	0.960617	0.988343	0.993603
H19	H	0.983900	0.029151	0.945467
H20	H	0.959639	0.036366	0.976921
H21	H	0.975457	0.977897	0.957143
H22	H	0.028327	0.037276	0.972551
C23	C	0.008549	0.037572	0.987709
H24	H	0.027007	0.986796	0.974372
O25	O	0.026893	0.092582	0.000795
C26	C	0.981283	0.115888	0.018184
C27	C	0.979075	0.080884	0.019913
H28	H	0.956020	0.072986	0.015111
H29	H	0.980100	0.126221	0.040761
H30	H	0.962848	0.125083	0.004209
H31	H	0.986381	0.072668	0.042218
H32	H	0.007593	0.129248	0.978514
X33	C	0.011917	0.122397	0.002070
H34	H	0.992276	0.079996	0.973825
H35	H	0.945118	0.897374	0.999066
H36	H	0.958432	0.872816	0.027652
H37	H	0.968151	0.866421	0.988983

loop_
_geom_bond_atom_site_label_1
_geom_bond_atom_site_label_2
_geom_bond_distance
_ccdc_geom_bond_type
X1	C2	0.03073	. A
X1	C6	0.03051	. A
C2	C3	0.03048	. A
C2	C9	0.03483	. A
C3	C4	0.03057	. A
C3	H8	0.02462	. A
C4	C5	0.03060	. A
C4	C7	0.03537	. A
C5	C6	0.03054	. A
C5	N11	0.03058	. A
C6	H10	0.02481	. A
C7	O14	0.03360	. A
C7	C16	0.03485	. A
C7	H24	0.02491	. A
C9	H35	0.02487	. A
C9	H36	0.02486	. A
C9	H37	0.02487	. A
N11	H12	0.02320	. A
N11	H13	0.02314	. A
O14	C23	0.03366	. A
C15	C16	0.03458	. A
C15	H19	0.02482	. A
C15	H20	0.02487	. A
C15	C23	0.03515	. A
C16	H18	0.02489	. A
C16	H21	0.02477	. A
C17	C23	0.03566	. A
C17	O25	0.03296	. A
C17	C27	0.03481	. A
C17	H34	0.02493	. A
H22	C23	0.02492	. A
O25	X33	0.03339	. A
C26	C27	0.03512	. A
C26	H29	0.02486	. A
C26	H30	0.02489	. A
C26	X33	0.03522	. A
C27	H28	0.02484	. A
C27	H31	0.02487	. A
H32	X33	0.02491	. A
