data_65_PM
_symmetry_space_group_name_H-M	'P1'
_cell_length_a	48.077473
_cell_length_b	48.077473
_cell_length_c	48.077473
_cell_angle_alpha	90.000000
_cell_angle_beta	90.000000
_cell_angle_gamma	90.000000
_symmetry_Int_Tables_number 1

loop_
_symmetry_equiv_pos_as_xyz
'x,y,z'

loop_
_atom_site_label
_atom_site_type_symbol
_atom_site_fract_x
_atom_site_fract_y
_atom_site_fract_z
X1	C	0.008725	0.874126	0.000504
C2	C	0.981810	0.881281	0.999422
C3	C	0.974239	0.908113	0.996635
C4	C	0.993333	0.928746	0.995137
C5	C	0.020269	0.920655	0.995637
C6	C	0.027757	0.894218	0.998257
N7	N	0.984909	0.954683	0.993203
C8	C	0.951047	0.909527	0.996344
H9	H	0.966314	0.864620	0.001045
H10	H	0.049888	0.889518	0.998715
H11	H	0.037221	0.935547	0.993848
N12	N	0.004087	0.972009	0.999152
C13	C	0.997098	0.001004	0.992309
C14	C	0.024200	0.017623	0.994742
N15	N	0.018896	0.045474	0.983178
N16	N	0.008184	0.037217	0.964562
N17	N	0.993874	0.015190	0.974483
C18	C	0.016088	0.067480	0.004456
H19	H	0.030710	0.018809	0.016561
H20	H	0.041172	0.007161	0.983406
H21	H	0.981144	0.008950	0.006702
O22	O	0.027985	0.092606	0.993473
C23	C	0.984119	0.106792	0.008054
C24	C	0.985554	0.075031	0.011112
H25	H	0.970807	0.065255	0.996843
H26	H	0.973136	0.116381	0.025484
H27	H	0.973407	0.112013	0.988689
H28	H	0.980333	0.068603	0.032265
H29	H	0.023160	0.118128	0.027793
X30	C	0.014798	0.115965	0.006744
H31	H	0.027798	0.062218	0.023404
N32	N	0.927939	0.915060	0.997841

loop_
_geom_bond_atom_site_label_1
_geom_bond_atom_site_label_2
_geom_bond_distance
_ccdc_geom_bond_type
X1	C2	0.02787	. A
X1	C6	0.02777	. A
C2	C3	0.02802	. A
C2	H9	0.02281	. A
C3	C4	0.02815	. A
C3	C8	0.02324	. A
C4	C5	0.02813	. A
C4	N7	0.02734	. A
C5	C6	0.02760	. A
C5	H11	0.02264	. A
C6	H10	0.02263	. A
N7	N12	0.02652	. A
C8	N32	0.02381	. A
N12	C13	0.03060	. A
C13	C14	0.03188	. A
C13	N17	0.02301	. A
C13	H21	0.02291	. A
C14	N15	0.03062	. A
C14	H19	0.02280	. A
C14	H20	0.02294	. A
N15	N16	0.02301	. A
N15	C18	0.03074	. A
N16	N17	0.02808	. A
C18	O22	0.02989	. A
C18	C24	0.03215	. A
C18	H31	0.02289	. A
O22	X30	0.02993	. A
C23	C24	0.03194	. A
C23	H26	0.02272	. A
C23	H27	0.02274	. A
C23	X30	0.03205	. A
C24	H25	0.02273	. A
C24	H28	0.02272	. A
H29	X30	0.02275	. A
