data_66_PM
_symmetry_space_group_name_H-M	'P1'
_cell_length_a	65.402253
_cell_length_b	65.402253
_cell_length_c	65.402253
_cell_angle_alpha	90.000000
_cell_angle_beta	90.000000
_cell_angle_gamma	90.000000
_symmetry_Int_Tables_number 1

loop_
_symmetry_equiv_pos_as_xyz
'x,y,z'

loop_
_atom_site_label
_atom_site_type_symbol
_atom_site_fract_x
_atom_site_fract_y
_atom_site_fract_z
X1	C	0.012813	0.893920	0.993867
C2	C	0.996285	0.905403	0.987873
C3	C	0.996147	0.926060	0.989204
C4	C	0.011727	0.937237	0.996619
C5	C	0.028210	0.925891	0.001696
C6	C	0.028822	0.905173	0.000258
C7	C	0.009434	0.960661	0.003515
H8	H	0.982111	0.933812	0.984877
C9	C	0.961072	0.897085	0.994035
H10	H	0.042521	0.897269	0.005396
H11	H	0.041375	0.933567	0.008286
O12	O	0.013088	0.980156	0.991405
C13	C	0.988349	0.988718	0.015900
C14	C	0.987906	0.965645	0.011389
C15	C	0.003134	0.021943	0.000916
H16	H	0.983793	0.956655	0.024860
H17	H	0.988578	0.991455	0.032367
H18	H	0.974466	0.995614	0.009677
H19	H	0.976560	0.962847	0.999433
H20	H	0.019892	0.997601	0.017291
C21	C	0.007828	0.997739	0.005702
H22	H	0.019586	0.961991	0.016741
H23	H	0.953671	0.912054	0.993546
H24	H	0.965949	0.893614	0.009662
H25	H	0.950200	0.885403	0.989035
O26	O	0.978594	0.896917	0.980335
C27	C	0.018256	0.040857	0.999112
C28	C	0.002263	0.059281	0.999738
N29	N	0.985811	0.050474	0.986558
N30	N	0.987279	0.027738	0.985962
C31	C	0.005734	0.083592	0.997567
H32	H	0.991805	0.024390	0.971437
H33	H	0.971714	0.053639	0.992399
H34	H	0.029127	0.041438	0.011772
H35	H	0.996361	0.058180	0.015349
H36	H	0.026589	0.040444	0.984617
H37	H	0.995948	0.025552	0.015579
C38	C	0.989480	0.096344	0.998164
C39	C	0.990765	0.117108	0.997888
X40	C	0.008685	0.127230	0.997078
C41	C	0.025106	0.114448	0.996344
C42	C	0.023776	0.093638	0.996619
H43	H	0.976667	0.125885	0.998576
H44	H	0.974313	0.089632	0.999234
H45	H	0.037812	0.084770	0.996405
H46	H	0.040396	0.120931	0.995717

loop_
_geom_bond_atom_site_label_1
_geom_bond_atom_site_label_2
_geom_bond_distance
_ccdc_geom_bond_type
X1	C2	0.02100	. A
X1	C6	0.02059	. A
C2	C3	0.02070	. A
C2	O26	0.02102	. A
C3	C4	0.02056	. A
C3	H8	0.01661	. A
C4	C5	0.02064	. A
C4	C7	0.02453	. A
C5	C6	0.02078	. A
C5	H11	0.01660	. A
C6	H10	0.01663	. A
C7	O12	0.02324	. A
C7	C14	0.02346	. A
C7	H22	0.01673	. A
C9	H23	0.01671	. A
C9	H24	0.01673	. A
C9	H25	0.01672	. A
C9	O26	0.02224	. A
O12	C21	0.02326	. A
C13	C14	0.02351	. A
C13	H17	0.01669	. A
C13	H18	0.01670	. A
C13	C21	0.02377	. A
C14	H16	0.01671	. A
C14	H19	0.01672	. A
C15	C21	0.02512	. A
C15	C27	0.02428	. A
C15	N30	0.02255	. A
C15	H37	0.01672	. A
H20	C21	0.01673	. A
C27	C28	0.02441	. A
C27	H34	0.01670	. A
C27	H36	0.01672	. A
C28	N29	0.02285	. A
C28	C31	0.02465	. A
C28	H35	0.01673	. A
N29	N30	0.02279	. A
N29	H33	0.01558	. A
N30	H32	0.01558	. A
C31	C38	0.02067	. A
C31	C42	0.02067	. A
C38	C39	0.02081	. A
C38	H44	0.01662	. A
C39	X40	0.02060	. A
C39	H43	0.01662	. A
X40	C41	0.02082	. A
C41	C42	0.02085	. A
C41	H46	0.01662	. A
C42	H45	0.01660	. A
