data_68_PM
_symmetry_space_group_name_H-M	'P1'
_cell_length_a	38.963860
_cell_length_b	38.963860
_cell_length_c	38.963860
_cell_angle_alpha	90.000000
_cell_angle_beta	90.000000
_cell_angle_gamma	90.000000
_symmetry_Int_Tables_number 1

loop_
_symmetry_equiv_pos_as_xyz
'x,y,z'

loop_
_atom_site_label
_atom_site_type_symbol
_atom_site_fract_x
_atom_site_fract_y
_atom_site_fract_z
X1	C	0.004704	0.914226	0.994400
C2	C	0.976139	0.932422	0.001587
C3	C	0.975831	0.966890	0.997095
C4	C	0.004242	0.983316	0.985957
C5	C	0.032293	0.964991	0.979617
C6	C	0.032576	0.931190	0.983570
C7	C	0.006526	0.022018	0.980464
C8	C	0.952373	0.982520	0.002818
O9	O	0.948703	0.916921	0.015343
H10	H	0.056316	0.917614	0.977949
H11	H	0.055674	0.977695	0.971225
C12	C	0.021899	0.040548	0.011904
N13	N	0.012275	0.077043	0.009979
N14	N	0.014662	0.080175	0.981953
N15	N	0.005217	0.048735	0.971122
N16	N	0.003189	0.093366	0.038570
H17	H	0.011633	0.029307	0.035567
H18	H	0.049951	0.037597	0.012494
H19	H	0.981297	0.032207	0.973381
H20	H	0.938052	0.934732	0.028997
N21	N	0.925682	0.994043	0.998738
X22	N	0.990768	0.122444	0.047270

loop_
_geom_bond_atom_site_label_1
_geom_bond_atom_site_label_2
_geom_bond_distance
_ccdc_geom_bond_type
X1	C2	0.03462	. A
X1	C6	0.03438	. A
C2	C3	0.03476	. A
C2	O9	0.03438	. A
C3	C4	0.03466	. A
C3	C8	0.02876	. A
C4	C5	0.03410	. A
C4	C7	0.03916	. A
C5	C6	0.03403	. A
C5	H11	0.02790	. A
C6	H10	0.02792	. A
C7	C12	0.03960	. A
C7	N15	0.02833	. A
C7	H19	0.02812	. A
C8	N21	0.02936	. A
O9	H20	0.02484	. A
C12	N13	0.03779	. A
C12	H17	0.02814	. A
C12	H18	0.02821	. A
N13	N14	0.02830	. A
N13	N16	0.03415	. A
N14	N15	0.03457	. A
N16	X22	0.03280	. A
