data_69_PM
_symmetry_space_group_name_H-M	'P1'
_cell_length_a	51.501742
_cell_length_b	51.501742
_cell_length_c	51.501742
_cell_angle_alpha	90.000000
_cell_angle_beta	90.000000
_cell_angle_gamma	90.000000
_symmetry_Int_Tables_number 1

loop_
_symmetry_equiv_pos_as_xyz
'x,y,z'

loop_
_atom_site_label
_atom_site_type_symbol
_atom_site_fract_x
_atom_site_fract_y
_atom_site_fract_z
X1	C	0.009588	0.906339	0.998245
C2	C	0.986054	0.917348	0.999119
C3	C	0.983569	0.943153	0.001197
C4	C	0.004209	0.959192	0.002400
C5	C	0.027762	0.947910	0.000478
C6	C	0.030169	0.922086	0.998439
C7	C	0.000268	0.988686	0.008769
H8	H	0.963900	0.950765	0.002711
H9	H	0.968521	0.905465	0.998847
H10	H	0.049528	0.913776	0.997449
F11	F	0.049606	0.961891	0.001507
O12	O	0.019917	0.008316	0.000905
C13	C	0.979161	0.029655	0.998964
C14	C	0.974365	0.000394	0.999546
C15	C	0.019432	0.059441	0.999799
H16	H	0.958599	0.995715	0.012963
H17	H	0.975628	0.037888	0.018206
H18	H	0.966657	0.039267	0.984809
H19	H	0.969278	0.993482	0.980149
H20	H	0.009316	0.031791	0.970460
C21	C	0.007840	0.032743	0.991585
H22	H	0.000073	0.989657	0.029953
C23	C	0.004928	0.081712	0.000051
C24	C	0.013238	0.108643	0.003274
H25	H	0.984190	0.080314	0.996595
H26	H	0.040402	0.060159	0.002614
X27	C	0.003801	0.134215	0.000964

loop_
_geom_bond_atom_site_label_1
_geom_bond_atom_site_label_2
_geom_bond_distance
_ccdc_geom_bond_type
X1	C2	0.02600	. A
X1	C6	0.02592	. A
C2	C3	0.02601	. A
C2	H9	0.02118	. A
C3	C4	0.02617	. A
C3	H8	0.02114	. A
C4	C5	0.02619	. A
C4	C7	0.03043	. A
C5	C6	0.02602	. A
C5	F11	0.02595	. A
C6	H10	0.02109	. A
C7	O12	0.02887	. A
C7	C14	0.02988	. A
C7	H22	0.02121	. A
O12	C21	0.02880	. A
C13	C14	0.02966	. A
C13	H17	0.02123	. A
C13	H18	0.02119	. A
C13	C21	0.02977	. A
C14	H16	0.02122	. A
C14	H19	0.02121	. A
C15	C21	0.03024	. A
C15	C23	0.02658	. A
C15	H26	0.02117	. A
H20	C21	0.02120	. A
C23	C24	0.02837	. A
C23	H25	0.02107	. A
C24	X27	0.02736	. A
