data_6_PM
_symmetry_space_group_name_H-M	'P1'
_cell_length_a	42.970475
_cell_length_b	42.970475
_cell_length_c	42.970475
_cell_angle_alpha	90.000000
_cell_angle_beta	90.000000
_cell_angle_gamma	90.000000
_symmetry_Int_Tables_number 1

loop_
_symmetry_equiv_pos_as_xyz
'x,y,z'

loop_
_atom_site_label
_atom_site_type_symbol
_atom_site_fract_x
_atom_site_fract_y
_atom_site_fract_z
X1	C	0.010050	0.894475	0.003719
C2	C	0.981705	0.903109	0.994108
C3	C	0.974746	0.932571	0.987871
C4	C	0.996156	0.955028	0.991664
C5	C	0.024362	0.946511	0.001671
C6	C	0.031855	0.916793	0.007652
C7	C	0.989501	0.989122	0.982728
F8	F	0.946076	0.938156	0.976887
H9	H	0.963599	0.885818	0.990291
N10	N	0.060945	0.910765	0.017636
H11	H	0.042188	0.964291	0.004603
O12	O	0.008141	0.012207	0.999088
C13	C	0.959945	0.036596	0.988173
C14	C	0.956478	0.001269	0.989267
C15	C	0.001742	0.068176	0.015704
H16	H	0.939559	0.993706	0.971906
H17	H	0.951498	0.045812	0.966042
H18	H	0.946355	0.047068	0.006977
H19	H	0.948822	0.993962	0.012399
H20	H	0.004302	0.049396	0.968416
C21	C	0.995226	0.042554	0.991222
H22	H	0.994225	0.991798	0.957850
H23	H	0.064971	0.891915	0.031459
H24	H	0.074489	0.928475	0.025757
C25	C	0.028434	0.090261	0.006093
X26	N	0.021662	0.120980	0.019777
N27	N	0.018497	0.110158	0.043002
N28	N	0.003347	0.083419	0.036462
H29	H	0.029319	0.092495	0.980750
H30	H	0.051543	0.081278	0.013074
H31	H	0.980262	0.081836	0.017752

loop_
_geom_bond_atom_site_label_1
_geom_bond_atom_site_label_2
_geom_bond_distance
_ccdc_geom_bond_type
X1	C2	0.03115	. A
X1	C6	0.03145	. A
C2	C3	0.03091	. A
C2	H9	0.02532	. A
C3	C4	0.03126	. A
C3	F8	0.03121	. A
C4	C5	0.03112	. A
C4	C7	0.03587	. A
C5	C6	0.03123	. A
C5	H11	0.02535	. A
C6	N10	0.03134	. A
C7	O12	0.03388	. A
C7	C14	0.03579	. A
C7	H22	0.02546	. A
N10	H23	0.02372	. A
N10	H24	0.02373	. A
O12	C21	0.03391	. A
C13	C14	0.03551	. A
C13	H17	0.02542	. A
C13	H18	0.02545	. A
C13	C21	0.03591	. A
C14	H16	0.02539	. A
C14	H19	0.02544	. A
C15	C21	0.03603	. A
C15	C25	0.03595	. A
C15	N28	0.02580	. A
C15	H31	0.02554	. A
H20	C21	0.02548	. A
C25	X26	0.03430	. A
C25	H29	0.02546	. A
C25	H30	0.02576	. A
X26	N27	0.02582	. A
N27	N28	0.03142	. A
