data_6_PM
_symmetry_space_group_name_H-M	'P1'
_cell_length_a	35.231254
_cell_length_b	35.231254
_cell_length_c	35.231254
_cell_angle_alpha	90.000000
_cell_angle_beta	90.000000
_cell_angle_gamma	90.000000
_symmetry_Int_Tables_number 1

loop_
_symmetry_equiv_pos_as_xyz
'x,y,z'

loop_
_atom_site_label
_atom_site_type_symbol
_atom_site_fract_x
_atom_site_fract_y
_atom_site_fract_z
X1	C	0.010915	0.918037	0.998823
C2	C	0.976287	0.935579	0.999278
C3	C	0.973505	0.973925	0.001321
C4	C	0.004756	0.996263	0.002258
C5	C	0.038902	0.978892	0.000640
C6	C	0.042478	0.940574	0.998909
C7	C	0.000555	0.039180	0.007821
O8	O	0.938309	0.991353	0.003706
O9	O	0.942907	0.914404	0.999278
Br10	Br	0.093370	0.923033	0.998199
H11	H	0.064532	0.996150	0.001520
H12	H	0.916709	0.974663	0.006175
H13	H	0.920966	0.926780	0.988435
C14	C	0.032089	0.067337	0.999505
X15	N	0.008957	0.100744	0.993487
N16	N	0.973250	0.091406	0.982134
N17	N	0.969247	0.056011	0.984944
H18	H	0.052327	0.071310	0.022694
H19	H	0.047218	0.061575	0.972994
H20	H	0.992721	0.042784	0.037880

loop_
_geom_bond_atom_site_label_1
_geom_bond_atom_site_label_2
_geom_bond_distance
_ccdc_geom_bond_type
X1	C2	0.03882	. A
X1	C6	0.03878	. A
C2	C3	0.03850	. A
C2	O9	0.03953	. A
C3	C4	0.03842	. A
C3	O8	0.03935	. A
C4	C5	0.03834	. A
C4	C7	0.04348	. A
C5	C6	0.03852	. A
C5	H11	0.03091	. A
C6	Br10	0.05384	. A
C7	C14	0.04309	. A
C7	N17	0.04227	. A
C7	H20	0.03127	. A
O8	H12	0.02741	. A
O9	H13	0.02742	. A
C14	X15	0.04108	. A
C14	H18	0.03103	. A
C14	H19	0.03106	. A
X15	N16	0.03861	. A
N16	N17	0.03573	. A
