data_4_PM
_symmetry_space_group_name_H-M	'P1'
_cell_length_a	58.818410
_cell_length_b	58.818410
_cell_length_c	58.818410
_cell_angle_alpha	90.000000
_cell_angle_beta	90.000000
_cell_angle_gamma	90.000000
_symmetry_Int_Tables_number 1

loop_
_symmetry_equiv_pos_as_xyz
'x,y,z'

loop_
_atom_site_label
_atom_site_type_symbol
_atom_site_fract_x
_atom_site_fract_y
_atom_site_fract_z
X1	C	0.002964	0.868212	0.001303
C2	C	0.983888	0.880045	0.997052
C3	C	0.984534	0.902878	0.995777
C4	C	0.003882	0.915306	0.999177
C5	C	0.023025	0.902929	0.004295
C6	C	0.022294	0.879841	0.004975
C7	C	0.002096	0.940996	0.997545
H8	H	0.968366	0.910903	0.991952
H9	H	0.967719	0.871323	0.994621
H10	H	0.037800	0.870728	0.009191
Br11	Br	0.052047	0.914898	0.011963
C12	C	0.982103	0.951877	0.001524
C13	C	0.979910	0.974607	0.000283
C14	C	0.997931	0.988396	0.995624
C15	C	0.017806	0.977872	0.991238
C16	C	0.019574	0.954920	0.991714
C17	C	0.994752	0.014187	0.995777
H18	H	0.963214	0.981680	0.003241
H19	H	0.966733	0.942713	0.006029
H20	H	0.036099	0.948306	0.987259
H21	H	0.032852	0.987733	0.987327
C22	C	0.015273	0.030202	0.998327
C23	C	0.005514	0.052032	0.009344
N24	N	0.981899	0.045742	0.015414
N25	N	0.981100	0.021566	0.015380
C26	C	0.006653	0.074032	0.994400
H27	H	0.964846	0.015615	0.014292
H28	H	0.970848	0.052117	0.003615
H29	H	0.027922	0.022790	0.009905
H30	H	0.015035	0.055245	0.025088
H31	H	0.023620	0.033365	0.981989
H32	H	0.985843	0.018777	0.979966
O33	O	0.026018	0.088109	0.000351
C34	C	0.994888	0.113000	0.996134
C35	C	0.985792	0.089333	0.997307
H36	H	0.972803	0.085950	0.984437
H37	H	0.995874	0.118695	0.978419
H38	H	0.984211	0.125088	0.005451
H39	H	0.977937	0.087293	0.014088
H40	H	0.017415	0.110653	0.025224
X41	C	0.018282	0.110466	0.006590
H42	H	0.008642	0.069578	0.976412

loop_
_geom_bond_atom_site_label_1
_geom_bond_atom_site_label_2
_geom_bond_distance
_ccdc_geom_bond_type
X1	C2	0.02285	. A
X1	C6	0.02286	. A
C2	C3	0.02288	. A
C2	H9	0.01853	. A
C3	C4	0.02325	. A
C3	H8	0.01845	. A
C4	C5	0.02336	. A
C4	C7	0.02580	. A
C5	C6	0.02311	. A
C5	Br11	0.03232	. A
C6	H10	0.01847	. A
C7	C12	0.02311	. A
C7	C16	0.02309	. A
C12	C13	0.02287	. A
C12	H19	0.01845	. A
C13	C14	0.02316	. A
C13	H18	0.01837	. A
C14	C15	0.02291	. A
C14	C17	0.02599	. A
C15	C16	0.02302	. A
C15	H21	0.01841	. A
C16	H20	0.01835	. A
C17	C22	0.02616	. A
C17	N25	0.02500	. A
C17	H32	0.01872	. A
C22	C23	0.02633	. A
C22	H29	0.01868	. A
C22	H31	0.01862	. A
C23	N24	0.02518	. A
C23	C26	0.02662	. A
C23	H30	0.01868	. A
N24	N25	0.02419	. A
N24	H28	0.01738	. A
N25	H27	0.01734	. A
C26	O33	0.02467	. A
C26	C35	0.02603	. A
C26	H42	0.01864	. A
O33	X41	0.02447	. A
C34	C35	0.02538	. A
C34	H37	0.01863	. A
C34	H38	0.01863	. A
C34	X41	0.02575	. A
C35	H36	0.01860	. A
C35	H39	0.01864	. A
H40	X41	0.01865	. A
