data_70_PM
_symmetry_space_group_name_H-M	'P1'
_cell_length_a	61.762701
_cell_length_b	61.762701
_cell_length_c	61.762701
_cell_angle_alpha	90.000000
_cell_angle_beta	90.000000
_cell_angle_gamma	90.000000
_symmetry_Int_Tables_number 1

loop_
_symmetry_equiv_pos_as_xyz
'x,y,z'

loop_
_atom_site_label
_atom_site_type_symbol
_atom_site_fract_x
_atom_site_fract_y
_atom_site_fract_z
X1	C	0.009225	0.899884	0.002758
C2	C	0.989585	0.909954	0.002159
C3	C	0.987497	0.931699	0.000427
C4	C	0.004335	0.945526	0.999310
C5	C	0.023732	0.935585	0.000346
C6	C	0.026080	0.913759	0.001997
C7	C	0.001129	0.970671	0.993853
H8	H	0.971176	0.938159	0.999180
Br9	Br	0.962498	0.895415	0.001965
H10	H	0.042384	0.907170	0.002483
H11	H	0.038288	0.945429	0.999213
C12	C	0.011184	0.990667	0.006401
C13	C	0.999008	0.011019	0.996363
N14	N	0.976892	0.001709	0.994890
N15	N	0.978333	0.977957	0.992202
C16	C	0.998296	0.034674	0.007875
H17	H	0.971694	0.974443	0.977500
H18	H	0.969039	0.003474	0.009300
H19	H	0.028654	0.991638	0.003940
H20	H	0.004870	0.013156	0.979783
H21	H	0.007865	0.989274	0.023726
H22	H	0.007590	0.972290	0.977436
C23	C	0.008270	0.055916	0.996314
N24	N	0.999688	0.078972	0.001965
N25	N	0.985019	0.069501	0.005802
N26	N	0.987173	0.048404	0.010773
C27	C	0.998458	0.101672	0.001641
H28	H	0.025675	0.055900	0.999828
H29	H	0.007201	0.053698	0.978634
H30	H	0.002328	0.033783	0.025086
X31	C	0.989164	0.122186	0.002710
H32	H	0.971759	0.122769	0.005478
H33	H	0.015912	0.103647	0.998662

loop_
_geom_bond_atom_site_label_1
_geom_bond_atom_site_label_2
_geom_bond_distance
_ccdc_geom_bond_type
X1	C2	0.02208	. A
X1	C6	0.02184	. A
C2	C3	0.02191	. A
C2	Br9	0.03074	. A
C3	C4	0.02182	. A
C3	H8	0.01760	. A
C4	C5	0.02182	. A
C4	C7	0.02593	. A
C5	C6	0.02201	. A
C5	H11	0.01761	. A
C6	H10	0.01759	. A
C7	C12	0.02566	. A
C7	N15	0.02399	. A
C7	H22	0.01772	. A
C12	C13	0.02575	. A
C12	H19	0.01767	. A
C12	H21	0.01769	. A
C13	N14	0.02404	. A
C13	C16	0.02632	. A
C13	H20	0.01771	. A
N14	N15	0.02395	. A
N14	H18	0.01651	. A
N15	H17	0.01651	. A
C16	C23	0.02616	. A
C16	N26	0.01791	. A
C16	H30	0.01770	. A
C23	N24	0.02524	. A
C23	H28	0.01776	. A
C23	H29	0.01785	. A
N24	N25	0.01788	. A
N24	C27	0.02274	. A
N25	N26	0.02178	. A
C27	X31	0.02255	. A
C27	H33	0.01782	. A
X31	H32	0.01763	. A
