data_74_PM
_symmetry_space_group_name_H-M	'P1'
_cell_length_a	47.355793
_cell_length_b	47.355793
_cell_length_c	47.355793
_cell_angle_alpha	90.000000
_cell_angle_beta	90.000000
_cell_angle_gamma	90.000000
_symmetry_Int_Tables_number 1

loop_
_symmetry_equiv_pos_as_xyz
'x,y,z'

loop_
_atom_site_label
_atom_site_type_symbol
_atom_site_fract_x
_atom_site_fract_y
_atom_site_fract_z
X1	C	0.014131	0.890627	0.999055
C2	C	0.988284	0.902305	0.999457
C3	C	0.984589	0.930369	0.002054
C4	C	0.007648	0.947009	0.004440
C5	C	0.033221	0.935205	0.003786
C6	C	0.036515	0.907668	0.000977
C7	C	0.005600	0.978937	0.008917
C8	C	0.954962	0.943630	0.002561
H9	H	0.969976	0.888579	0.997915
H10	H	0.057948	0.899475	0.000597
H11	H	0.052331	0.947621	0.005749
C12	C	0.030138	0.995915	0.995043
N13	N	0.027202	0.026978	0.998021
N14	N	0.005663	0.018003	0.998316
N15	N	0.990375	0.996570	0.008664
N16	N	0.030623	0.038381	0.023720
H17	H	0.050030	0.990425	0.005454
H18	H	0.032650	0.989686	0.972681
H19	H	0.004671	0.982781	0.031765
N20	N	0.039429	0.063932	0.024058
C21	C	0.029821	0.083381	0.001167
O22	O	0.039091	0.111973	0.005581
C23	C	0.991536	0.116492	0.992594
C24	C	0.997322	0.085725	0.000069
H25	H	0.988580	0.071724	0.983957
H26	H	0.978972	0.118329	0.973314
H27	H	0.980133	0.126565	0.009952
H28	H	0.987714	0.080572	0.020426
H29	H	0.027625	0.127979	0.966578
X30	C	0.021036	0.129711	0.988624
H31	H	0.038352	0.076539	0.980663
C32	C	0.929432	0.924161	0.997092
H33	H	0.910110	0.936767	0.996606
H34	H	0.927215	0.908450	0.013816
H35	H	0.931417	0.913476	0.976756
H36	H	0.951689	0.953851	0.023002
H37	H	0.953970	0.960207	0.986575

loop_
_geom_bond_atom_site_label_1
_geom_bond_atom_site_label_2
_geom_bond_distance
_ccdc_geom_bond_type
X1	C2	0.02837	. A
X1	C6	0.02820	. A
C2	C3	0.02843	. A
C2	H9	0.02293	. A
C3	C4	0.02854	. A
C3	C8	0.03246	. A
C4	C5	0.02817	. A
C4	C7	0.03231	. A
C5	C6	0.02787	. A
C5	H11	0.02287	. A
C6	H10	0.02295	. A
C7	C12	0.03291	. A
C7	N15	0.02330	. A
C7	H19	0.02319	. A
C8	C32	0.03257	. A
C8	H36	0.02309	. A
C8	H37	0.02305	. A
C12	N13	0.03134	. A
C12	H17	0.02311	. A
C12	H18	0.02335	. A
N13	N14	0.02334	. A
N13	N16	0.02832	. A
N14	N15	0.02829	. A
N16	N20	0.02703	. A
N20	C21	0.03154	. A
C21	O22	0.03038	. A
C21	C24	0.03260	. A
C21	H31	0.02324	. A
O22	X30	0.03047	. A
C23	C24	0.03219	. A
C23	H26	0.02309	. A
C23	H27	0.02308	. A
C23	X30	0.03257	. A
C24	H25	0.02307	. A
C24	H28	0.02309	. A
H29	X30	0.02307	. A
C32	H33	0.02308	. A
C32	H34	0.02305	. A
C32	H35	0.02306	. A
