data_75_PM
_symmetry_space_group_name_H-M	'P1'
_cell_length_a	38.255218
_cell_length_b	38.255218
_cell_length_c	38.255218
_cell_angle_alpha	90.000000
_cell_angle_beta	90.000000
_cell_angle_gamma	90.000000
_symmetry_Int_Tables_number 1

loop_
_symmetry_equiv_pos_as_xyz
'x,y,z'

loop_
_atom_site_label
_atom_site_type_symbol
_atom_site_fract_x
_atom_site_fract_y
_atom_site_fract_z
X1	C	0.007030	0.941506	0.000399
C2	C	0.974930	0.956197	0.001026
C3	C	0.969807	0.990859	0.000660
C4	C	0.997515	0.012320	0.000111
C5	C	0.029328	0.997969	0.999510
C6	C	0.034713	0.963333	0.999510
N7	N	0.994405	0.046041	0.999980
C8	C	0.932531	0.005027	0.001601
H9	H	0.951665	0.939885	0.001732
C10	C	0.072329	0.950655	0.998151
H11	H	0.051835	0.015457	0.998935
H12	H	0.078733	0.935337	0.021389
H13	H	0.090810	0.972378	0.996922
H14	H	0.076642	0.934657	0.974912
N15	N	0.979374	0.075971	0.000007
N16	N	0.005018	0.104909	0.999797
X17	N	0.984864	0.131153	0.999980
H18	H	0.913579	0.984951	0.008946
H19	H	0.925055	0.015117	0.975931
H20	H	0.929838	0.026279	0.020500

loop_
_geom_bond_atom_site_label_1
_geom_bond_atom_site_label_2
_geom_bond_distance
_ccdc_geom_bond_type
X1	C2	0.03531	. A
X1	C6	0.03526	. A
C2	C3	0.03504	. A
C2	H9	0.02842	. A
C3	C4	0.03505	. A
C3	C8	0.03989	. A
C4	C5	0.03490	. A
C4	N7	0.03386	. A
C5	C6	0.03505	. A
C5	H11	0.02851	. A
C6	C10	0.03972	. A
N7	N15	0.03349	. A
C8	H18	0.02857	. A
C8	H19	0.02858	. A
C8	H20	0.02857	. A
C10	H12	0.02856	. A
C10	H13	0.02855	. A
C10	H14	0.02854	. A
N15	N16	0.03867	. A
N16	X17	0.03309	. A
