data_77_PM
_symmetry_space_group_name_H-M	'P1'
_cell_length_a	41.318311
_cell_length_b	41.318311
_cell_length_c	41.318311
_cell_angle_alpha	90.000000
_cell_angle_beta	90.000000
_cell_angle_gamma	90.000000
_symmetry_Int_Tables_number 1

loop_
_symmetry_equiv_pos_as_xyz
'x,y,z'

loop_
_atom_site_label
_atom_site_type_symbol
_atom_site_fract_x
_atom_site_fract_y
_atom_site_fract_z
X1	C	0.004491	0.905303	0.996867
C2	C	0.974141	0.917090	0.998392
C3	C	0.967994	0.948528	0.999723
C4	C	0.991640	0.970238	0.999699
C5	C	0.021941	0.958548	0.998150
C6	C	0.029492	0.926988	0.996746
N7	N	0.982878	0.000491	0.000909
H8	H	0.942872	0.956418	0.000812
H9	H	0.953037	0.901382	0.998537
C10	C	0.066933	0.923552	0.994447
H11	H	0.042053	0.975587	0.997593
C12	C	0.087021	0.892936	0.001175
H13	H	0.085690	0.875970	0.980942
H14	H	0.112506	0.899688	0.003184
H15	H	0.080196	0.881440	0.023974
H16	H	0.074315	0.932506	0.970680
H17	H	0.077171	0.940808	0.011728
N18	N	0.006790	0.020119	0.002071
C19	C	0.997908	0.050323	0.000667
C20	C	0.967752	0.061578	0.995294
C21	C	0.960903	0.093089	0.994713
X22	C	0.984936	0.114581	0.999554
C23	C	0.015092	0.103883	0.003959
C24	C	0.021287	0.072348	0.004588
C25	C	0.903180	0.088442	0.004660
H26	H	0.947882	0.044975	0.990720
H27	H	0.046119	0.064530	0.008630
H28	H	0.034986	0.120728	0.007710
H29	H	0.881422	0.102697	0.999772
H30	H	0.899211	0.063659	0.996359
H31	H	0.908238	0.088781	0.030630
O32	O	0.929924	0.102794	0.987114

loop_
_geom_bond_atom_site_label_1
_geom_bond_atom_site_label_2
_geom_bond_distance
_ccdc_geom_bond_type
X1	C2	0.03259	. A
X1	C6	0.03310	. A
C2	C3	0.03206	. A
C2	H9	0.02631	. A
C3	C4	0.03210	. A
C3	H8	0.02635	. A
C4	C5	0.03251	. A
C4	N7	0.03152	. A
C5	C6	0.03248	. A
C5	H11	0.02637	. A
C6	C10	0.03767	. A
N7	N18	0.03096	. A
C10	C12	0.03723	. A
C10	H16	0.02645	. A
C10	H17	0.02648	. A
C12	H13	0.02644	. A
C12	H14	0.02644	. A
C12	H15	0.02643	. A
N18	C19	0.03151	. A
C19	C20	0.03263	. A
C19	C24	0.03236	. A
C20	C21	0.03225	. A
C20	H26	0.02629	. A
C21	X22	0.03260	. A
C21	O32	0.03334	. A
X22	C23	0.03230	. A
C23	C24	0.03214	. A
C23	H28	0.02634	. A
C24	H27	0.02634	. A
C25	H29	0.02647	. A
C25	H30	0.02644	. A
C25	H31	0.02646	. A
C25	O32	0.03506	. A
