data_78_PM
_symmetry_space_group_name_H-M	'P1'
_cell_length_a	53.534311
_cell_length_b	53.534311
_cell_length_c	53.534311
_cell_angle_alpha	90.000000
_cell_angle_beta	90.000000
_cell_angle_gamma	90.000000
_symmetry_Int_Tables_number 1

loop_
_symmetry_equiv_pos_as_xyz
'x,y,z'

loop_
_atom_site_label
_atom_site_type_symbol
_atom_site_fract_x
_atom_site_fract_y
_atom_site_fract_z
X1	C	0.012391	0.892364	0.987743
C2	C	0.989228	0.901330	0.983447
C3	C	0.984763	0.926174	0.983148
C4	C	0.003350	0.943304	0.984997
C5	C	0.026512	0.933497	0.984885
C6	C	0.030062	0.909493	0.989984
C7	C	0.999950	0.968278	0.989872
H8	H	0.965281	0.931760	0.982793
H9	H	0.973257	0.888759	0.983241
O10	O	0.035441	0.909456	0.013446
H11	H	0.042988	0.944555	0.988079
C12	C	0.977441	0.978477	0.994972
C13	C	0.974863	0.002331	0.002462
C14	C	0.994440	0.017667	0.005264
C15	C	0.016724	0.007916	0.999922
C16	C	0.019283	0.984361	0.992338
C17	C	0.991283	0.044696	0.015109
H18	H	0.956202	0.009130	0.006964
H19	H	0.960405	0.967550	0.994225
H20	H	0.038523	0.979467	0.988882
H21	H	0.033667	0.018788	0.002182
H22	H	0.016948	0.912744	0.015109
C23	C	0.013941	0.062629	0.012718
C24	C	0.003107	0.088164	0.005320
N25	N	0.979365	0.081944	0.992842
N26	N	0.970362	0.058146	0.002985
N27	N	0.998792	0.104976	0.027007
H28	H	0.956931	0.062965	0.015575
H29	H	0.981980	0.078320	0.974406
H30	H	0.026232	0.057006	0.997494
H31	H	0.015529	0.097803	0.992058
H32	H	0.024962	0.063451	0.029903
H33	H	0.986781	0.043538	0.035040
X34	N	0.999016	0.128960	0.025588

loop_
_geom_bond_atom_site_label_1
_geom_bond_atom_site_label_2
_geom_bond_distance
_ccdc_geom_bond_type
X1	C2	0.02521	. A
X1	C6	0.02471	. A
C2	C3	0.02524	. A
C2	H9	0.02033	. A
C3	C4	0.02534	. A
C3	H8	0.02027	. A
C4	C5	0.02515	. A
C4	C7	0.02567	. A
C5	C6	0.02479	. A
C5	H11	0.02010	. A
C6	O10	0.02407	. A
C7	C12	0.02523	. A
C7	C16	0.02527	. A
O10	H22	0.01886	. A
C12	C13	0.02513	. A
C12	H19	0.02025	. A
C13	C14	0.02503	. A
C13	H18	0.02036	. A
C14	C15	0.02490	. A
C14	C17	0.02894	. A
C15	C16	0.02488	. A
C15	H21	0.02026	. A
C16	H20	0.02015	. A
C17	C23	0.02899	. A
C17	N26	0.02767	. A
C17	H33	0.02047	. A
C23	C24	0.02871	. A
C23	H30	0.02036	. A
C23	H32	0.02043	. A
C24	N25	0.02753	. A
C24	N27	0.02778	. A
C24	H31	0.02057	. A
N25	N26	0.02739	. A
N25	H29	0.01897	. A
N26	H28	0.01903	. A
N27	X34	0.02403	. A
