data_79_PM
_symmetry_space_group_name_H-M	'P1'
_cell_length_a	77.317112
_cell_length_b	77.317112
_cell_length_c	77.317112
_cell_angle_alpha	90.000000
_cell_angle_beta	90.000000
_cell_angle_gamma	90.000000
_symmetry_Int_Tables_number 1

loop_
_symmetry_equiv_pos_as_xyz
'x,y,z'

loop_
_atom_site_label
_atom_site_type_symbol
_atom_site_fract_x
_atom_site_fract_y
_atom_site_fract_z
X1	C	0.998595	0.903142	0.000637
C2	C	0.984148	0.913877	0.000327
C3	C	0.983320	0.931906	0.000017
C4	C	0.996655	0.943689	0.000042
C5	C	0.011179	0.933083	0.000327
C6	C	0.012395	0.914692	0.000767
C7	C	0.994314	0.966504	0.997106
H8	H	0.970283	0.937300	0.999383
H9	H	0.971434	0.907850	0.000146
C10	C	0.031149	0.908199	0.001206
H11	H	0.023298	0.940042	0.000030
C12	C	0.004182	0.985219	0.003315
C13	C	0.993719	0.004064	0.997766
N14	N	0.976685	0.994713	0.001090
N15	N	0.976840	0.974898	0.999654
C16	C	0.994779	0.026685	0.005138
H17	H	0.968200	0.971613	0.990239
H18	H	0.972844	0.996666	0.013558
H19	H	0.017258	0.985400	0.998025
H20	H	0.995077	0.004827	0.983720
H21	H	0.005488	0.984844	0.017387
H22	H	0.996034	0.967125	0.983099
C23	C	0.034874	0.888682	0.999111
H24	H	0.048778	0.886431	0.998439
H25	H	0.029183	0.883586	0.987212
H26	H	0.030063	0.881374	0.010221
H27	H	0.036917	0.912273	0.013455
H28	H	0.038327	0.914808	0.991002
C29	C	0.996887	0.047987	0.995490
N30	N	0.996435	0.068538	0.004660
N31	N	0.995672	0.056665	0.012886
N32	N	0.994275	0.039101	0.012601
C33	C	0.995762	0.090267	0.997598
H34	H	0.009330	0.047340	0.988376
H35	H	0.987472	0.048284	0.984755
H36	H	0.985415	0.027551	0.015744
C37	C	0.008114	0.108788	0.000780
X38	C	0.998207	0.128874	0.003612
N39	N	0.981458	0.120118	0.998296
N40	N	0.980746	0.101119	0.003948
H41	H	0.968834	0.096333	0.000974
H42	H	0.980707	0.119497	0.985169
H43	H	0.016767	0.109823	0.989657
H44	H	0.997379	0.130582	0.017619
H45	H	0.016534	0.106538	0.011890
H46	H	0.993990	0.089103	0.983526

loop_
_geom_bond_atom_site_label_1
_geom_bond_atom_site_label_2
_geom_bond_distance
_ccdc_geom_bond_type
X1	C2	0.01800	. A
X1	C6	0.01800	. A
C2	C3	0.01805	. A
C2	H9	0.01407	. A
C3	C4	0.01779	. A
C3	H8	0.01412	. A
C4	C5	0.01799	. A
C4	C7	0.02312	. A
C5	C6	0.01844	. A
C5	H11	0.01398	. A
C6	C10	0.01985	. A
C7	C12	0.02205	. A
C7	N15	0.01955	. A
C7	H22	0.01413	. A
C10	C23	0.01998	. A
C10	H27	0.01414	. A
C10	H28	0.01412	. A
C12	C13	0.02226	. A
C12	H19	0.01411	. A
C12	H21	0.01414	. A
C13	N14	0.01971	. A
C13	C16	0.02382	. A
C13	H20	0.01413	. A
N14	N15	0.01987	. A
N14	H18	0.01319	. A
N15	H17	0.01319	. A
C16	C29	0.02348	. A
C16	N32	0.01450	. A
C16	H36	0.01417	. A
C23	H24	0.01410	. A
C23	H25	0.01414	. A
C23	H26	0.01414	. A
C29	N30	0.02251	. A
C29	H34	0.01435	. A
C29	H35	0.01428	. A
N30	N31	0.01446	. A
N30	C33	0.02286	. A
N31	N32	0.01762	. A
C33	C37	0.02249	. A
C33	N40	0.01958	. A
C33	H46	0.01423	. A
C37	X38	0.02257	. A
C37	H43	0.01413	. A
C37	H45	0.01412	. A
X38	N39	0.01963	. A
X38	H44	0.01414	. A
N39	N40	0.01984	. A
N39	H42	0.01316	. A
N40	H41	0.01318	. A
