data_7_PM
_symmetry_space_group_name_H-M	'P1'
_cell_length_a	47.813816
_cell_length_b	47.813816
_cell_length_c	47.813816
_cell_angle_alpha	90.000000
_cell_angle_beta	90.000000
_cell_angle_gamma	90.000000
_symmetry_Int_Tables_number 1

loop_
_symmetry_equiv_pos_as_xyz
'x,y,z'

loop_
_atom_site_label
_atom_site_type_symbol
_atom_site_fract_x
_atom_site_fract_y
_atom_site_fract_z
X1	C	0.002041	0.883497	0.999124
C2	C	0.975584	0.892281	0.995987
C3	C	0.969770	0.919010	0.990967
C4	C	0.990057	0.938063	0.989106
C5	C	0.016409	0.929488	0.992766
C6	C	0.022726	0.902760	0.997555
C7	C	0.981754	0.968243	0.983187
H8	H	0.948061	0.925284	0.988395
H9	H	0.958100	0.877788	0.997158
Cl10	Cl	0.058217	0.896402	0.001508
H11	H	0.033643	0.944170	0.991971
C12	C	0.004948	0.989659	0.977916
N13	N	0.003212	0.005721	0.003516
N14	N	0.981022	0.999552	0.019536
N15	N	0.967574	0.979286	0.008514
N16	N	0.020990	0.027075	0.007761
H17	H	0.999532	0.002961	0.960139
H18	H	0.025821	0.981084	0.974884
H19	H	0.967156	0.968807	0.965598
N20	N	0.015698	0.041234	0.029784
C21	C	0.011285	0.066457	0.021147
C22	C	0.985017	0.075701	0.019306
C23	C	0.979579	0.101531	0.010961
X24	C	0.000284	0.119162	0.004394
C25	C	0.026658	0.110022	0.005482
C26	C	0.032012	0.084004	0.013931
H27	H	0.957682	0.107784	0.009414
H28	H	0.967532	0.062086	0.024535
H29	H	0.053637	0.077061	0.015228
H30	H	0.043996	0.123825	0.000232

loop_
_geom_bond_atom_site_label_1
_geom_bond_atom_site_label_2
_geom_bond_distance
_ccdc_geom_bond_type
X1	C2	0.02805	. A
X1	C6	0.02831	. A
C2	C3	0.02781	. A
C2	H9	0.02274	. A
C3	C4	0.02789	. A
C3	H8	0.02274	. A
C4	C5	0.02795	. A
C4	C7	0.03186	. A
C5	C6	0.02788	. A
C5	H11	0.02265	. A
C6	Cl10	0.03627	. A
C7	C12	0.03201	. A
C7	N15	0.03106	. A
C7	H19	0.02286	. A
C12	N13	0.03027	. A
C12	H17	0.02285	. A
C12	H18	0.02277	. A
N13	N14	0.02806	. A
N13	N16	0.02811	. A
N14	N15	0.02670	. A
N16	N20	0.02671	. A
N20	C21	0.02702	. A
C21	C22	0.02791	. A
C21	C26	0.02810	. A
C22	C23	0.02768	. A
C22	H28	0.02277	. A
C23	X24	0.02798	. A
C23	H27	0.02283	. A
X24	C25	0.02793	. A
C25	C26	0.02787	. A
C25	H30	0.02278	. A
C26	H29	0.02275	. A
