data_7_PM
_symmetry_space_group_name_H-M	'P1'
_cell_length_a	61.465314
_cell_length_b	61.465314
_cell_length_c	61.465314
_cell_angle_alpha	90.000000
_cell_angle_beta	90.000000
_cell_angle_gamma	90.000000
_symmetry_Int_Tables_number 1

loop_
_symmetry_equiv_pos_as_xyz
'x,y,z'

loop_
_atom_site_label
_atom_site_type_symbol
_atom_site_fract_x
_atom_site_fract_y
_atom_site_fract_z
X1	C	0.007811	0.891895	0.992914
C2	C	0.987686	0.898468	0.997144
C3	C	0.983716	0.918658	0.002887
C4	C	0.999221	0.933821	0.005099
C5	C	0.020322	0.927118	0.003033
C6	C	0.024325	0.906358	0.995680
C7	C	0.990322	0.957330	0.008695
H8	H	0.966634	0.922107	0.005620
H9	H	0.973841	0.887518	0.996005
C10	C	0.044987	0.900599	0.991092
C11	C	0.037991	0.939515	0.008142
C12	C	0.058181	0.932731	0.004140
C13	C	0.061663	0.913582	0.995045
Br14	Br	0.038446	0.965497	0.024785
H15	H	0.072124	0.942785	0.008435
H16	H	0.078160	0.908245	0.991498
H17	H	0.049298	0.885192	0.983770
O18	O	0.001743	0.974673	0.997062
C19	C	0.964714	0.984581	0.995224
C20	C	0.967414	0.960454	0.998738
C21	C	0.991282	0.013492	0.008874
H22	H	0.966276	0.952368	0.982924
H23	H	0.956433	0.990812	0.009639
H24	H	0.954855	0.988047	0.980842
H25	H	0.954513	0.954418	0.009395
H26	H	0.990956	0.998687	0.976221
C27	C	0.987963	0.993676	0.993028
H28	H	0.989980	0.961397	0.026022
O29	O	0.010675	0.026605	0.004123
C30	C	0.981113	0.042077	0.984763
C31	C	0.973271	0.030656	0.005392
C32	C	0.010024	0.067652	0.998120
H33	H	0.973092	0.041768	0.019221
H34	H	0.978543	0.031876	0.970462
H35	H	0.972621	0.057419	0.981916
H36	H	0.956774	0.024555	0.003375
H37	H	0.014726	0.042110	0.974155
C38	C	0.005664	0.044615	0.989269
H39	H	0.991770	0.007830	0.025745
N40	N	0.995381	0.077089	0.010420
C41	C	0.995626	0.098174	0.011461
C42	C	0.011114	0.110002	0.001781
N43	N	0.027302	0.100777	0.991661
C44	C	0.026261	0.079610	0.989579
H45	H	0.038056	0.071785	0.978971
C46	C	0.976379	0.127914	0.017399
X47	C	0.991428	0.140067	0.007084
N48	N	0.978396	0.106943	0.019986
N49	N	0.009438	0.131070	0.999828
H50	H	0.961492	0.135382	0.023337

loop_
_geom_bond_atom_site_label_1
_geom_bond_atom_site_label_2
_geom_bond_distance
_ccdc_geom_bond_type
X1	C2	0.02159	. A
X1	C6	0.02213	. A
C2	C3	0.02136	. A
C2	H9	0.01769	. A
C3	C4	0.02180	. A
C3	H8	0.01764	. A
C4	C5	0.02224	. A
C4	C7	0.02539	. A
C5	C6	0.02238	. A
C5	C11	0.02218	. A
C6	C10	0.02193	. A
C7	O18	0.02380	. A
C7	C20	0.02517	. A
C7	H28	0.01780	. A
C10	C13	0.02150	. A
C10	H17	0.01759	. A
C11	C12	0.02167	. A
C11	Br14	0.03086	. A
C12	C13	0.02148	. A
C12	H15	0.01772	. A
C13	H16	0.01770	. A
O18	C27	0.02382	. A
C19	C20	0.02453	. A
C19	H23	0.01775	. A
C19	H24	0.01778	. A
C19	C27	0.02506	. A
C20	H22	0.01780	. A
C20	H25	0.01779	. A
C21	C27	0.02559	. A
C21	O29	0.02389	. A
C21	C31	0.02512	. A
C21	H39	0.01780	. A
H26	C27	0.01779	. A
O29	C38	0.02388	. A
C30	C31	0.02485	. A
C30	H34	0.01775	. A
C30	H35	0.01777	. A
C30	C38	0.02509	. A
C31	H33	0.01774	. A
C31	H36	0.01770	. A
C32	C38	0.02506	. A
C32	N40	0.02132	. A
C32	C44	0.02190	. A
H37	C38	0.01780	. A
N40	C41	0.02111	. A
C41	C42	0.02176	. A
C41	N48	0.02113	. A
C42	N43	0.02120	. A
C42	N49	0.02123	. A
N43	C44	0.02129	. A
C44	H45	0.01769	. A
C46	X47	0.02192	. A
C46	N48	0.02123	. A
C46	H50	0.01768	. A
X47	N49	0.02140	. A
