data_7_PM
_symmetry_space_group_name_H-M	'P1'
_cell_length_a	41.649986
_cell_length_b	41.649986
_cell_length_c	41.649986
_cell_angle_alpha	90.000000
_cell_angle_beta	90.000000
_cell_angle_gamma	90.000000
_symmetry_Int_Tables_number 1

loop_
_symmetry_equiv_pos_as_xyz
'x,y,z'

loop_
_atom_site_label
_atom_site_type_symbol
_atom_site_fract_x
_atom_site_fract_y
_atom_site_fract_z
X_C1	X_C	0.005906	0.040000	-0.004658
C1	C	-0.022809	0.055030	-0.003289
C2	C	-0.024490	0.087179	-0.001176
C3	C	0.002209	0.105546	-0.000120
C4	C	0.031261	0.090612	-0.001729
C5	C	0.032725	0.058223	-0.004250
N1	N	-0.001561	0.137743	0.005738
H1	H	-0.048091	0.098271	0.000456
F1	F	-0.050756	0.038607	-0.003337
H2	H	0.056399	0.047443	-0.005738
Br1	Br	0.070492	0.113301	0.001248
N2	N	0.007539	0.157815	-0.014718
C6	C	0.005738	0.190084	-0.000096
O1	O	0.022137	0.216927	-0.014502
C7	C	-0.026579	0.237335	0.003914
C8	C	-0.029076	0.201153	0.001729
H3	H	-0.042473	0.194382	-0.019904
H4	H	-0.039232	0.248379	-0.016351
H5	H	-0.037311	0.246699	0.026002
H6	H	-0.041489	0.190588	0.022329
H7	H	0.019376	0.242761	0.027011
X_C2	X_C	0.009388	0.243962	0.002617
H8	H	0.015894	0.188187	0.024226

loop_
_geom_bond_atom_site_label_1
_geom_bond_atom_site_label_2
_geom_bond_distance
X_C1	C1	0.03244
X_C1	C5	0.03243
C1	C2	0.03226
C1	F1	0.03242
C2	C3	0.03242
C2	H1	0.02613
C3	C4	0.03270
C3	N1	0.03294
C4	C5	0.03252
C4	Br1	0.04542
C5	H2	0.02606
N1	N2	0.03007
N2	C6	0.03547
C6	O1	0.03460
C6	C8	0.03658
C6	H8	0.02643
O1	X_C2	0.03445
C7	C8	0.03633
C7	H4	0.02632
C7	H5	0.02628
C7	X_C2	0.03659
C8	H3	0.02633
C8	H6	0.02627
H7	X_C2	0.02639
