data_80_PM
_symmetry_space_group_name_H-M	'P1'
_cell_length_a	28.572461
_cell_length_b	28.572461
_cell_length_c	28.572461
_cell_angle_alpha	90.000000
_cell_angle_beta	90.000000
_cell_angle_gamma	90.000000
_symmetry_Int_Tables_number 1

loop_
_symmetry_equiv_pos_as_xyz
'x,y,z'

loop_
_atom_site_label
_atom_site_type_symbol
_atom_site_fract_x
_atom_site_fract_y
_atom_site_fract_z
X1	C	0.999668	0.943137	0.983231
C2	C	0.973209	0.955142	0.013505
C3	C	0.980069	0.003125	0.025579
X4	C	0.015068	0.041903	0.999295
C5	C	0.047197	0.021009	0.981726
C6	C	0.042052	0.970226	0.981061
C7	C	0.930336	0.017789	0.999610
Cl8	Cl	0.911542	0.919478	0.002935
N9	N	0.063961	0.949822	0.018369
C10	C	0.097735	0.048308	0.993100
H11	H	0.130144	0.080717	0.998665
H12	H	0.092730	0.021289	0.014274
H13	H	0.112819	0.015514	0.999050
C14	C	0.930301	0.017789	0.999610
H15	H	0.907097	0.992660	0.006855
H16	H	0.930266	0.017789	0.999610
H17	H	0.930196	0.002110	0.963456
H18	H	0.920956	0.069377	0.998875
H19	H	0.891907	0.053278	0.000625
H20	H	0.055701	0.934737	0.996110
H21	H	0.037047	0.924798	0.024459

loop_
_geom_bond_atom_site_label_1
_geom_bond_atom_site_label_2
_geom_bond_distance
_ccdc_geom_bond_type
X1	C2	0.04196	. A
X1	C6	0.05035	. A
C2	C3	0.04995	. A
C2	Cl8	0.07202	. A
C3	X4	0.05848	. A
C3	C7	0.05799	. A
X4	C5	0.04216	. A
C5	C6	0.05105	. A
C5	C10	0.05856	. A
C6	N9	0.04784	. A
C7	C14	0.00003	. A
C7	H18	0.05244	. A
C7	H19	0.05232	. A
N9	H20	0.02813	. A
N9	H21	0.03725	. A
C10	H11	0.04617	. A
C10	H12	0.03469	. A
C10	H13	0.03658	. A
C14	H15	0.03496	. A
C14	H16	0.00003	. A
C14	H17	0.03941	. A
