data_81_PM
_symmetry_space_group_name_H-M	'P1'
_cell_length_a	51.397486
_cell_length_b	51.397486
_cell_length_c	51.397486
_cell_angle_alpha	90.000000
_cell_angle_beta	90.000000
_cell_angle_gamma	90.000000
_symmetry_Int_Tables_number 1

loop_
_symmetry_equiv_pos_as_xyz
'x,y,z'

loop_
_atom_site_label
_atom_site_type_symbol
_atom_site_fract_x
_atom_site_fract_y
_atom_site_fract_z
X1	C	0.024348	0.895150	0.998755
C2	C	0.002732	0.909470	0.995350
C3	C	0.002654	0.935502	0.995895
C4	C	0.025710	0.948830	0.999689
C5	C	0.047832	0.934023	0.003385
C6	C	0.046645	0.907933	0.002763
C7	C	0.028745	0.975290	0.995583
C8	C	0.956251	0.940483	0.002685
H9	H	0.984365	0.899664	0.991887
H10	H	0.064486	0.896979	0.005759
H11	H	0.066432	0.943499	0.006849
C12	C	0.015126	0.994124	0.008074
C13	C	0.015612	0.021868	0.002451
H14	H	0.000709	0.988579	0.022569
H15	H	0.042442	0.981263	0.980622
C16	C	0.012480	0.045177	0.997724
C17	C	0.004405	0.072240	0.990544
O18	O	0.017149	0.094031	0.004027
C19	C	0.972808	0.106075	0.997412
C20	C	0.975474	0.076521	0.996362
H21	H	0.970435	0.068213	0.015312
H22	H	0.970882	0.113818	0.977703
H23	H	0.956018	0.112125	0.008930
H24	H	0.962983	0.067921	0.981478
H25	H	0.996253	0.116172	0.030741
X26	C	0.998510	0.115277	0.009611
H27	H	0.007771	0.074906	0.969707
H28	H	0.950045	0.923206	0.991965
H29	H	0.958625	0.935852	0.023328
H30	H	0.941426	0.955581	0.000506
O31	O	0.980649	0.950230	0.992334

loop_
_geom_bond_atom_site_label_1
_geom_bond_atom_site_label_2
_geom_bond_distance
_ccdc_geom_bond_type
X1	C2	0.02615	. A
X1	C6	0.02601	. A
C2	C3	0.02604	. A
C2	H9	0.02111	. A
C3	C4	0.02690	. A
C3	O31	0.02672	. A
C4	C5	0.02687	. A
C4	C7	0.02695	. A
C5	C6	0.02613	. A
C5	H11	0.02116	. A
C6	H10	0.02115	. A
C7	C12	0.02639	. A
C7	H15	0.02115	. A
C8	H28	0.02126	. A
C8	H29	0.02129	. A
C8	H30	0.02127	. A
C8	O31	0.02824	. A
C12	C13	0.02831	. A
C12	H14	0.02118	. A
C13	C16	0.02399	. A
C16	C17	0.02914	. A
C17	O18	0.02862	. A
C17	C20	0.02982	. A
C17	H27	0.02128	. A
O18	X26	0.02881	. A
C19	C20	0.02969	. A
C19	H22	0.02126	. A
C19	H23	0.02124	. A
C19	X26	0.02990	. A
C20	H21	0.02130	. A
C20	H24	0.02125	. A
H25	X26	0.02127	. A
