data_82_PM
_symmetry_space_group_name_H-M	'P1'
_cell_length_a	43.128605
_cell_length_b	43.128605
_cell_length_c	43.128605
_cell_angle_alpha	90.000000
_cell_angle_beta	90.000000
_cell_angle_gamma	90.000000
_symmetry_Int_Tables_number 1

loop_
_symmetry_equiv_pos_as_xyz
'x,y,z'

loop_
_atom_site_label
_atom_site_type_symbol
_atom_site_fract_x
_atom_site_fract_y
_atom_site_fract_z
X1	C	0.039097	0.928184	0.991131
C2	C	0.008722	0.936554	0.993218
C3	C	0.998613	0.966859	0.996371
C4	C	0.018159	0.992039	0.995513
C5	C	0.048255	0.983205	0.993241
C6	C	0.058156	0.953109	0.991548
C7	C	0.006473	0.028512	0.999153
C8	C	0.963532	0.971658	0.001750
Cl9	Cl	0.981617	0.906667	0.992707
Br10	Br	0.101376	0.946803	0.988093
H11	H	0.065668	0.001430	0.992962
C12	C	0.026390	0.060300	0.998782
X13	C	0.005105	0.089214	0.986656
N14	N	0.975056	0.072520	0.985867
N15	N	0.982406	0.039919	0.977219
H16	H	0.962025	0.028025	0.978796
H17	H	0.966500	0.070850	0.007825
H18	H	0.046192	0.057727	0.983224
H19	H	0.011505	0.093295	0.962472
H20	H	0.035410	0.064984	0.021992
H21	H	0.995367	0.028743	0.021969
C22	C	0.951684	0.957955	0.032774
H23	H	0.939418	0.936114	0.028971
H24	H	0.935314	0.973768	0.043880
H25	H	0.970766	0.953689	0.048865
H26	H	0.956970	0.995865	0.002538
H27	H	0.950223	0.962013	0.982482

loop_
_geom_bond_atom_site_label_1
_geom_bond_atom_site_label_2
_geom_bond_distance
_ccdc_geom_bond_type
X1	C2	0.03158	. A
X1	C6	0.03138	. A
C2	C3	0.03210	. A
C2	Cl9	0.04035	. A
C3	C4	0.03189	. A
C3	C8	0.03581	. A
C4	C5	0.03145	. A
C4	C7	0.03847	. A
C5	C6	0.03173	. A
C5	H11	0.02521	. A
C6	Br10	0.04381	. A
C7	C12	0.03751	. A
C7	N15	0.03450	. A
C7	H21	0.02538	. A
C8	C22	0.03593	. A
C8	H26	0.02509	. A
C8	H27	0.02533	. A
C12	X13	0.03790	. A
C12	H18	0.02531	. A
C12	H20	0.02534	. A
X13	N14	0.03438	. A
X13	H19	0.02535	. A
N14	N15	0.03452	. A
N14	H17	0.02362	. A
N15	H16	0.02365	. A
C22	H23	0.02534	. A
C22	H24	0.02533	. A
C22	H25	0.02532	. A
