data_83_PM
_symmetry_space_group_name_H-M	'P1'
_cell_length_a	55.588132
_cell_length_b	55.588132
_cell_length_c	55.588132
_cell_angle_alpha	90.000000
_cell_angle_beta	90.000000
_cell_angle_gamma	90.000000
_symmetry_Int_Tables_number 1

loop_
_symmetry_equiv_pos_as_xyz
'x,y,z'

loop_
_atom_site_label
_atom_site_type_symbol
_atom_site_fract_x
_atom_site_fract_y
_atom_site_fract_z
X1	C	0.008752	0.888151	0.997998
C2	C	0.986859	0.897955	0.998987
C3	C	0.984125	0.921791	0.999814
C4	C	0.003086	0.937028	0.999689
C5	C	0.024889	0.926540	0.998285
C6	C	0.027677	0.902938	0.997458
C7	C	0.000729	0.961314	0.001056
H8	H	0.965668	0.927853	0.000732
H9	H	0.970903	0.886621	0.999347
H10	H	0.046081	0.896390	0.996432
H11	H	0.041709	0.936218	0.997818
C12	C	0.979178	0.972341	0.002639
C13	C	0.977109	0.996195	0.004150
C14	C	0.996592	0.010533	0.004132
C15	C	0.017855	0.999757	0.002621
C16	C	0.019960	0.976083	0.001110
N17	N	0.997419	0.033829	0.005157
H18	H	0.959066	0.003625	0.005355
H19	H	0.962286	0.962663	0.002837
H20	H	0.038399	0.970111	0.999994
H21	H	0.034243	0.010497	0.002531
N22	N	0.976965	0.044119	0.005823
C23	C	0.978278	0.070384	0.000552
C24	C	0.004165	0.080908	0.000480
N25	N	0.002834	0.107208	0.000714
N26	N	0.984377	0.104384	0.007496
N27	N	0.970705	0.088121	0.995983
N28	N	0.021867	0.119981	0.993752
H29	H	0.014347	0.074737	0.016239
H30	H	0.013664	0.074899	0.984272
H31	H	0.968942	0.073820	0.983390
X32	N	0.021273	0.143007	0.993158

loop_
_geom_bond_atom_site_label_1
_geom_bond_atom_site_label_2
_geom_bond_distance
_ccdc_geom_bond_type
X1	C2	0.02401	. A
X1	C6	0.02402	. A
C2	C3	0.02401	. A
C2	H9	0.01958	. A
C3	C4	0.02432	. A
C3	H8	0.01945	. A
C4	C5	0.02424	. A
C4	C7	0.02444	. A
C5	C6	0.02378	. A
C5	H11	0.01941	. A
C6	H10	0.01956	. A
C7	C12	0.02426	. A
C7	C16	0.02425	. A
C12	C13	0.02399	. A
C12	H19	0.01947	. A
C13	C14	0.02419	. A
C13	H18	0.01955	. A
C14	C15	0.02389	. A
C14	N17	0.02333	. A
C15	C16	0.02382	. A
C15	H21	0.01959	. A
C16	H20	0.01941	. A
N17	N22	0.02291	. A
N22	C23	0.02682	. A
C23	C24	0.02794	. A
C23	N27	0.01982	. A
C23	H31	0.01984	. A
C24	N25	0.02634	. A
C24	H29	0.01975	. A
C24	H30	0.01972	. A
N25	N26	0.01987	. A
N25	N28	0.02396	. A
N26	N27	0.02416	. A
N28	X32	0.02304	. A
