data_84_PM
_symmetry_space_group_name_H-M	'P1'
_cell_length_a	50.790826
_cell_length_b	50.790826
_cell_length_c	50.790826
_cell_angle_alpha	90.000000
_cell_angle_beta	90.000000
_cell_angle_gamma	90.000000
_symmetry_Int_Tables_number 1

loop_
_symmetry_equiv_pos_as_xyz
'x,y,z'

loop_
_atom_site_label
_atom_site_type_symbol
_atom_site_fract_x
_atom_site_fract_y
_atom_site_fract_z
X1	C	0.016780	0.931422	0.996659
C2	C	0.995024	0.946523	0.992642
C3	C	0.995792	0.973004	0.993902
C4	C	0.018433	0.986826	0.999553
C5	C	0.040583	0.970977	0.001896
C6	C	0.039225	0.944515	0.000872
C7	C	0.019910	0.014370	0.000025
H8	H	0.977836	0.984069	0.990181
C9	C	0.950232	0.937033	0.004554
H10	H	0.057358	0.933332	0.003333
H11	H	0.059760	0.980014	0.004908
H12	H	0.943046	0.957234	0.006326
H13	H	0.957320	0.929886	0.023593
H14	H	0.934245	0.924334	0.997702
O15	O	0.971260	0.935931	0.985416
C16	C	0.003096	0.035555	0.999553
C17	C	0.011326	0.063966	0.999829
H18	H	0.981911	0.032307	0.998647
H19	H	0.040248	0.020828	0.001089
C20	C	0.996993	0.086844	0.999848
C21	C	0.992819	0.115786	0.999927
H22	H	0.975591	0.085348	0.999868
H23	H	0.032609	0.066466	0.999789
X24	C	0.988605	0.143429	0.999888

loop_
_geom_bond_atom_site_label_1
_geom_bond_atom_site_label_2
_geom_bond_distance
_ccdc_geom_bond_type
X1	C2	0.02679	. A
X1	C6	0.02632	. A
C2	C3	0.02652	. A
C2	O15	0.02700	. A
C3	C4	0.02712	. A
C3	H8	0.02142	. A
C4	C5	0.02734	. A
C4	C7	0.02759	. A
C5	C6	0.02652	. A
C5	H11	0.02141	. A
C6	H10	0.02145	. A
C7	C16	0.02705	. A
C7	H19	0.02137	. A
C9	H12	0.02151	. A
C9	H13	0.02154	. A
C9	H14	0.02154	. A
C9	O15	0.02845	. A
C16	C17	0.02958	. A
C16	H18	0.02145	. A
C17	C20	0.02700	. A
C17	H23	0.02143	. A
C20	C21	0.02924	. A
C20	H22	0.02145	. A
C21	X24	0.02796	. A
