data_85_PM
_symmetry_space_group_name_H-M	'P1'
_cell_length_a	47.480735
_cell_length_b	47.480735
_cell_length_c	47.480735
_cell_angle_alpha	90.000000
_cell_angle_beta	90.000000
_cell_angle_gamma	90.000000
_symmetry_Int_Tables_number 1

loop_
_symmetry_equiv_pos_as_xyz
'x,y,z'

loop_
_atom_site_label
_atom_site_type_symbol
_atom_site_fract_x
_atom_site_fract_y
_atom_site_fract_z
X1	C	0.008110	0.906829	0.995738
C2	C	0.987913	0.924646	0.987419
C3	C	0.991935	0.951710	0.982027
C4	C	0.016071	0.964726	0.990999
C5	C	0.037912	0.946466	0.997318
C6	C	0.033510	0.918497	0.999634
C7	C	0.012007	0.993601	0.993211
H8	H	0.973675	0.964094	0.975498
O9	O	0.961418	0.919802	0.990641
H10	H	0.051138	0.905312	0.005995
H11	H	0.058594	0.955059	0.001635
C12	C	0.988250	0.004869	0.003910
C13	C	0.979467	0.035744	0.003594
H14	H	0.971485	0.991453	0.011997
H15	H	0.028076	0.007438	0.984828
C16	C	0.003224	0.057606	0.007469
N17	N	0.991261	0.086291	0.005658
N18	N	0.968578	0.083890	0.001382
N19	N	0.967567	0.055626	0.001172
N20	N	0.007879	0.108742	0.008438
H21	H	0.018978	0.054994	0.990831
H22	H	0.013354	0.054552	0.027941
H23	H	0.962660	0.038777	0.019095
X24	N	0.004403	0.135490	0.007806
H25	H	0.962534	0.933787	0.005763

loop_
_geom_bond_atom_site_label_1
_geom_bond_atom_site_label_2
_geom_bond_distance
_ccdc_geom_bond_type
X1	C2	0.02819	. A
X1	C6	0.02822	. A
C2	C3	0.02789	. A
C2	O9	0.02713	. A
C3	C4	0.02885	. A
C3	H8	0.02301	. A
C4	C5	0.02916	. A
C4	C7	0.02924	. A
C5	C6	0.02841	. A
C5	H11	0.02281	. A
C6	H10	0.02291	. A
C7	C12	0.02839	. A
C7	H15	0.02280	. A
O9	H25	0.02063	. A
C12	C13	0.03210	. A
C12	H14	0.02294	. A
C13	C16	0.03252	. A
C13	N19	0.02330	. A
C13	H23	0.02306	. A
C16	N17	0.03113	. A
C16	H21	0.02306	. A
C16	H22	0.02304	. A
N17	N18	0.02321	. A
N17	N20	0.02807	. A
N18	N19	0.02828	. A
N20	X24	0.02698	. A
