data_86_PM
_symmetry_space_group_name_H-M	'P1'
_cell_length_a	45.734551
_cell_length_b	45.734551
_cell_length_c	45.734551
_cell_angle_alpha	90.000000
_cell_angle_beta	90.000000
_cell_angle_gamma	90.000000
_symmetry_Int_Tables_number 1

loop_
_symmetry_equiv_pos_as_xyz
'x,y,z'

loop_
_atom_site_label
_atom_site_type_symbol
_atom_site_fract_x
_atom_site_fract_y
_atom_site_fract_z
X1	C	0.995297	0.929011	0.998168
C2	C	0.967528	0.937736	0.003766
C3	C	0.959788	0.965898	0.004728
C4	C	0.979357	0.987064	0.000508
C5	C	0.006689	0.978755	0.994495
C6	C	0.014845	0.950592	0.992921
N7	N	0.972317	0.014483	0.001623
H8	H	0.937004	0.971517	0.009013
H9	H	0.950014	0.922080	0.007527
C10	C	0.063867	0.931723	0.001514
H11	H	0.022804	0.995722	0.990231
H12	H	0.072197	0.912962	0.989247
H13	H	0.053962	0.924573	0.022045
H14	H	0.081862	0.946788	0.005799
O15	O	0.042701	0.945913	0.983059
N16	N	0.966566	0.041924	0.002476
N17	N	0.993067	0.060334	0.999043
N18	N	0.994575	0.088016	0.998627
C19	C	0.991471	0.116266	0.998759
X20	C	0.970699	0.137103	0.998868
H21	H	0.948199	0.129341	0.998890
H22	H	0.015194	0.112199	0.998693

loop_
_geom_bond_atom_site_label_1
_geom_bond_atom_site_label_2
_geom_bond_distance
_ccdc_geom_bond_type
X1	C2	0.02964	. A
X1	C6	0.02959	. A
C2	C3	0.02922	. A
C2	H9	0.02379	. A
C3	C4	0.02913	. A
C3	H8	0.02385	. A
C4	C5	0.02919	. A
C4	N7	0.02833	. A
C5	C6	0.02936	. A
C5	H11	0.02379	. A
C6	O15	0.02992	. A
N7	N16	0.02805	. A
C10	H12	0.02391	. A
C10	H13	0.02389	. A
C10	H14	0.02386	. A
C10	O15	0.03146	. A
N16	N17	0.03245	. A
N17	N18	0.02773	. A
N18	C19	0.02842	. A
C19	X20	0.02942	. A
C19	H22	0.02407	. A
X20	H21	0.02380	. A
