data_87_PM
_symmetry_space_group_name_H-M	'P1'
_cell_length_a	43.087173
_cell_length_b	43.087173
_cell_length_c	43.087173
_cell_angle_alpha	90.000000
_cell_angle_beta	90.000000
_cell_angle_gamma	90.000000
_symmetry_Int_Tables_number 1

loop_
_symmetry_equiv_pos_as_xyz
'x,y,z'

loop_
_atom_site_label
_atom_site_type_symbol
_atom_site_fract_x
_atom_site_fract_y
_atom_site_fract_z
X1	C	0.997410	0.920048	0.014191
C2	C	0.970094	0.931861	0.023289
C3	C	0.962295	0.961012	0.016790
C4	C	0.981048	0.979300	0.000451
C5	C	0.008458	0.967998	0.990588
C6	C	0.016766	0.938615	0.997945
C7	C	0.969815	0.012141	0.993257
H8	H	0.939945	0.969715	0.024705
H9	H	0.953569	0.918006	0.036425
C10	C	0.071678	0.940124	0.005557
C11	C	0.029369	0.987493	0.969537
H12	H	0.081031	0.921951	0.020597
H13	H	0.064878	0.960083	0.019738
H14	H	0.089456	0.947388	0.988963
O15	O	0.045243	0.928009	0.988429
H16	H	0.016140	0.003368	0.954916
H17	H	0.045731	0.001070	0.983323
H18	H	0.042691	0.973127	0.953477
C19	C	0.989821	0.038622	0.007344
N20	N	0.974225	0.069118	0.004768
N21	N	0.952896	0.060972	0.993257
N22	N	0.952501	0.030243	0.988174
C23	C	0.977172	0.100171	0.007275
H24	H	0.994857	0.033725	0.031760
H25	H	0.011892	0.040200	0.994974
H26	H	0.966682	0.014763	0.968191
X27	C	0.958466	0.125190	0.007460
H28	H	0.933400	0.122220	0.005720
H29	H	0.002470	0.103467	0.008899

loop_
_geom_bond_atom_site_label_1
_geom_bond_atom_site_label_2
_geom_bond_distance
_ccdc_geom_bond_type
X1	C2	0.03112	. A
X1	C6	0.03136	. A
C2	C3	0.03087	. A
C2	H9	0.02525	. A
C3	C4	0.03087	. A
C3	H8	0.02526	. A
C4	C5	0.03125	. A
C4	C7	0.03545	. A
C5	C6	0.03141	. A
C5	C11	0.03550	. A
C6	O15	0.03184	. A
C7	C19	0.03605	. A
C7	N22	0.02556	. A
C7	H26	0.02540	. A
C10	H12	0.02538	. A
C10	H13	0.02541	. A
C10	H14	0.02538	. A
C10	O15	0.03375	. A
C11	H16	0.02531	. A
C11	H17	0.02534	. A
C11	H18	0.02533	. A
C19	N20	0.03435	. A
C19	H24	0.02541	. A
C19	H25	0.02535	. A
N20	N21	0.02557	. A
N20	C23	0.03129	. A
N21	N22	0.03115	. A
C23	X27	0.03124	. A
C23	H29	0.02556	. A
X27	H28	0.02530	. A
