data_88_PM
_symmetry_space_group_name_H-M	'P1'
_cell_length_a	35.681492
_cell_length_b	35.681492
_cell_length_c	35.681492
_cell_angle_alpha	90.000000
_cell_angle_beta	90.000000
_cell_angle_gamma	90.000000
_symmetry_Int_Tables_number 1

loop_
_symmetry_equiv_pos_as_xyz
'x,y,z'

loop_
_atom_site_label
_atom_site_type_symbol
_atom_site_fract_x
_atom_site_fract_y
_atom_site_fract_z
X1	C	0.001136	0.945530	0.021181
C2	C	0.967673	0.963438	0.025132
C3	C	0.962853	0.000908	0.023311
C4	C	0.990290	0.024366	0.013222
C5	C	0.022688	0.006766	0.003328
C6	C	0.024706	0.968567	0.003721
C7	C	0.982134	0.061052	0.008233
H8	H	0.934463	0.012203	0.024908
O9	O	0.938667	0.947351	0.009074
O10	O	0.017811	0.953349	0.971071
C11	C	0.055534	0.027449	0.985616
H12	H	0.943963	0.957945	0.983402
H13	H	0.994382	0.940233	0.983402
X14	C	0.970504	0.093393	0.000834
H15	H	0.048107	0.055026	0.974798
H16	H	0.067361	0.011334	0.962383
H17	H	0.077730	0.031092	0.006383

loop_
_geom_bond_atom_site_label_1
_geom_bond_atom_site_label_2
_geom_bond_distance
_ccdc_geom_bond_type
X1	C2	0.03816	. A
X1	C6	0.03730	. A
C2	C3	0.03782	. A
C2	O9	0.03685	. A
C3	C4	0.03748	. A
C3	H8	0.03060	. A
C4	C5	0.03817	. A
C4	C7	0.03791	. A
C5	C6	0.03825	. A
C5	C11	0.04267	. A
C6	O10	0.03668	. A
C7	X14	0.03516	. A
O9	H12	0.02827	. A
O10	H13	0.02955	. A
C11	H15	0.03054	. A
C11	H16	0.03065	. A
C11	H17	0.03061	. A
