data_89_PM
_symmetry_space_group_name_H-M	'P1'
_cell_length_a	47.248946
_cell_length_b	47.248946
_cell_length_c	47.248946
_cell_angle_alpha	90.000000
_cell_angle_beta	90.000000
_cell_angle_gamma	90.000000
_symmetry_Int_Tables_number 1

loop_
_symmetry_equiv_pos_as_xyz
'x,y,z'

loop_
_atom_site_label
_atom_site_type_symbol
_atom_site_fract_x
_atom_site_fract_y
_atom_site_fract_z
X1	C	0.005723	0.892765	0.001053
C2	C	0.980029	0.905633	0.000038
C3	C	0.978442	0.933951	0.999254
C4	C	0.001659	0.949952	0.999424
C5	C	0.026888	0.937422	0.000228
C6	C	0.028856	0.909316	0.001032
C7	C	0.999839	0.977571	0.998895
H8	H	0.957659	0.943983	0.998471
Cl9	Cl	0.947415	0.888808	0.999530
H10	H	0.049893	0.900131	0.001773
H11	H	0.046147	0.950100	0.000291
C12	C	0.006421	0.002546	0.998112
N13	N	0.008771	0.030250	0.994429
N14	N	0.004115	0.044769	0.016821
C15	C	0.988686	0.069933	0.006281
C16	C	0.008707	0.094865	0.000440
X17	N	0.991818	0.117807	0.988101
N18	N	0.979585	0.102505	0.975254
N19	N	0.973066	0.081447	0.993244
H20	H	0.018655	0.101870	0.020144
H21	H	0.025766	0.088579	0.985900
H22	H	0.971860	0.075796	0.021287

loop_
_geom_bond_atom_site_label_1
_geom_bond_atom_site_label_2
_geom_bond_distance
_ccdc_geom_bond_type
X1	C2	0.02875	. A
X1	C6	0.02844	. A
C2	C3	0.02837	. A
C2	Cl9	0.03670	. A
C3	C4	0.02820	. A
C3	H8	0.02309	. A
C4	C5	0.02818	. A
C4	C7	0.02768	. A
C5	C6	0.02819	. A
C5	H11	0.02306	. A
C6	H10	0.02297	. A
C7	C12	0.02584	. A
C12	N13	0.02805	. A
N13	N14	0.02709	. A
N14	C15	0.03134	. A
C15	C16	0.03251	. A
C15	N19	0.02338	. A
C15	H22	0.02329	. A
C16	X17	0.03105	. A
C16	H20	0.02316	. A
C16	H21	0.02328	. A
X17	N18	0.02343	. A
N18	N19	0.02845	. A
