data_8_PM
_symmetry_space_group_name_H-M	'P1'
_cell_length_a	58.250713
_cell_length_b	58.250713
_cell_length_c	58.250713
_cell_angle_alpha	90.000000
_cell_angle_beta	90.000000
_cell_angle_gamma	90.000000
_symmetry_Int_Tables_number 1

loop_
_symmetry_equiv_pos_as_xyz
'x,y,z'

loop_
_atom_site_label
_atom_site_type_symbol
_atom_site_fract_x
_atom_site_fract_y
_atom_site_fract_z
X1	C	0.003574	0.874337	0.995975
C2	C	0.983437	0.886165	0.995511
C3	C	0.983077	0.909118	0.996198
C4	C	0.002081	0.921839	0.997400
C5	C	0.022063	0.910388	0.997880
C6	C	0.022716	0.887247	0.997228
C7	C	0.998767	0.948208	0.998773
H8	H	0.966545	0.917839	0.995889
Br9	Br	0.953326	0.873616	0.994533
H10	H	0.039385	0.878835	0.997691
H11	H	0.038115	0.919813	0.998979
C12	C	0.017686	0.964413	0.007151
N13	N	0.010235	0.985443	0.994962
N14	N	0.995660	0.981065	0.977795
N15	N	0.992879	0.959212	0.976438
C16	C	0.012226	0.008018	0.007408
H17	H	0.017411	0.966336	0.025811
H18	H	0.034578	0.959074	0.001005
H19	H	0.984021	0.951212	0.010052
C20	C	0.011986	0.030919	0.993606
C21	C	0.006098	0.048172	0.013108
N22	N	0.987952	0.035554	0.025605
N23	N	0.992828	0.010902	0.023477
C24	C	0.997858	0.073511	0.008112
H25	H	0.996622	0.005134	0.039528
H26	H	0.972622	0.037271	0.017382
H27	H	0.028587	0.034541	0.985709
H28	H	0.021068	0.049236	0.024404
H29	H	0.998647	0.030661	0.980421
H30	H	0.028055	0.007554	0.017691
O31	O	0.015574	0.090609	0.003168
C32	C	0.980433	0.103536	0.986653
C33	C	0.980484	0.077202	0.988747
H34	H	0.963523	0.070455	0.993005
H35	H	0.969085	0.110832	0.999700
H36	H	0.974596	0.109218	0.969760
H37	H	0.986527	0.069408	0.972799
H38	H	0.014458	0.112772	0.975065
X39	C	0.005480	0.110798	0.991425
H40	H	0.989737	0.079536	0.023957

loop_
_geom_bond_atom_site_label_1
_geom_bond_atom_site_label_2
_geom_bond_distance
_ccdc_geom_bond_type
X1	C2	0.02336	. A
X1	C6	0.02312	. A
C2	C3	0.02297	. A
C2	Br9	0.03264	. A
C3	C4	0.02290	. A
C3	H8	0.01869	. A
C4	C5	0.02304	. A
C4	C7	0.02661	. A
C5	C6	0.02316	. A
C5	H11	0.01865	. A
C6	H10	0.01868	. A
C7	C12	0.02628	. A
C7	N15	0.02559	. A
C7	H19	0.01881	. A
C12	N13	0.02542	. A
C12	H17	0.01876	. A
C12	H18	0.01875	. A
N13	N14	0.02294	. A
N13	C16	0.02586	. A
N14	N15	0.02207	. A
C16	C20	0.02674	. A
C16	N23	0.02535	. A
C16	H30	0.01888	. A
C20	C21	0.02670	. A
C20	H27	0.01874	. A
C20	H29	0.01876	. A
C21	N22	0.02539	. A
C21	C24	0.02711	. A
C21	H28	0.01878	. A
N22	N23	0.02522	. A
N22	H26	0.01748	. A
N23	H25	0.01747	. A
C24	O31	0.02511	. A
C24	C33	0.02628	. A
C24	H40	0.01880	. A
O31	X39	0.02544	. A
C32	C33	0.02642	. A
C32	H35	0.01877	. A
C32	H36	0.01875	. A
C32	X39	0.02651	. A
C33	H34	0.01874	. A
C33	H37	0.01875	. A
H38	X39	0.01877	. A
