data_8_PM
_symmetry_space_group_name_H-M	'P1'
_cell_length_a	62.862809
_cell_length_b	62.862809
_cell_length_c	62.862809
_cell_angle_alpha	90.000000
_cell_angle_beta	90.000000
_cell_angle_gamma	90.000000
_symmetry_Int_Tables_number 1

loop_
_symmetry_equiv_pos_as_xyz
'x,y,z'

loop_
_atom_site_label
_atom_site_type_symbol
_atom_site_fract_x
_atom_site_fract_y
_atom_site_fract_z
X1	C	0.996421	0.899707	0.000349
C2	C	0.977236	0.908774	0.999172
C3	C	0.974739	0.929677	0.998234
C4	C	0.990869	0.943739	0.996993
C5	C	0.010786	0.934752	0.995816
C6	C	0.013283	0.913165	0.999268
C7	C	0.983647	0.967633	0.002672
H8	H	0.958290	0.934640	0.999188
H9	H	0.962681	0.899405	0.999840
C10	C	0.032993	0.905227	0.001797
C11	C	0.028905	0.945696	0.991361
C12	C	0.048264	0.937011	0.993382
C13	C	0.050173	0.916999	0.999443
Br14	Br	0.029573	0.971801	0.976376
C15	C	0.073351	0.961938	0.005599
H16	H	0.065794	0.909824	0.001511
H17	H	0.036158	0.888969	0.006187
O18	O	0.993367	0.988360	0.996325
C19	C	0.957925	0.997380	0.000604
C20	C	0.959977	0.973105	0.998647
C21	C	0.984109	0.030086	0.001002
H22	H	0.949700	0.965501	0.010451
H23	H	0.946789	0.001564	0.013282
H24	H	0.952150	0.003870	0.985571
H25	H	0.955093	0.967983	0.982755
H26	H	0.982613	0.003839	0.022938
C27	C	0.980386	0.005668	0.005774
H28	H	0.985381	0.967792	0.019995
C29	C	0.967724	0.043815	0.999824
N30	N	0.969442	0.064558	0.998265
C31	C	0.987911	0.074628	0.998122
C32	C	0.004995	0.061186	0.998949
C33	C	0.003150	0.039726	0.000349
*34	*	0.987751	0.093701	0.997597
H35	H	0.951625	0.037706	0.000906
H36	H	0.017515	0.030086	0.001638
H37	H	0.021142	0.067326	0.998949
N38	N	0.972448	0.104518	0.997995
C39	C	0.967899	0.125214	0.998440
X40	C	0.984284	0.138990	0.998393
C41	C	0.002864	0.128093	0.997788
C42	C	0.001766	0.106284	0.997390
H43	H	0.017387	0.098998	0.996643
H44	H	0.018246	0.136031	0.997518
H45	H	0.951482	0.130607	0.998806
H46	H	0.059718	0.967378	0.014968
H47	H	0.084486	0.953364	0.015827
H48	H	0.081209	0.975650	0.998377
O49	O	0.066303	0.948035	0.988721

loop_
_geom_bond_atom_site_label_1
_geom_bond_atom_site_label_2
_geom_bond_distance
_ccdc_geom_bond_type
X1	C2	0.02125	. A
X1	C6	0.02160	. A
C2	C3	0.02107	. A
C2	H9	0.01732	. A
C3	C4	0.02144	. A
C3	H8	0.01721	. A
C4	C5	0.02188	. A
C4	C7	0.02560	. A
C5	C6	0.02200	. A
C5	C11	0.02163	. A
C6	C10	0.02140	. A
C7	O18	0.02376	. A
C7	C20	0.02463	. A
C7	H28	0.01741	. A
C10	C13	0.02096	. A
C10	H17	0.01713	. A
C11	C12	0.02131	. A
C11	Br14	0.03011	. A
C12	C13	0.02100	. A
C12	O49	0.02165	. A
C13	H16	0.01731	. A
C15	H46	0.01741	. A
C15	H47	0.01738	. A
C15	H48	0.01738	. A
C15	O49	0.02297	. A
O18	C27	0.02361	. A
C19	C20	0.02444	. A
C19	H23	0.01739	. A
C19	H24	0.01736	. A
C19	C27	0.02449	. A
C20	H22	0.01740	. A
C20	H25	0.01740	. A
C21	C27	0.02516	. A
C21	C29	0.02141	. A
C21	C33	0.02135	. A
H26	C27	0.01740	. A
C29	N30	0.02087	. A
C29	H35	0.01725	. A
N30	C31	0.02104	. A
C31	C32	0.02175	. A
C31	*34	0.01908	. A
C32	C33	0.02158	. A
C32	H37	0.01727	. A
C33	H36	0.01735	. A
*34	N38	0.01874	. A
*34	C42	0.01884	. A
N38	C39	0.02119	. A
C39	X40	0.02141	. A
C39	H45	0.01728	. A
X40	C41	0.02155	. A
C41	C42	0.02184	. A
C41	H44	0.01731	. A
C42	H43	0.01725	. A
