data_92_PM
_symmetry_space_group_name_H-M	'P1'
_cell_length_a	67.379437
_cell_length_b	67.379437
_cell_length_c	67.379437
_cell_angle_alpha	90.000000
_cell_angle_beta	90.000000
_cell_angle_gamma	90.000000
_symmetry_Int_Tables_number 1

loop_
_symmetry_equiv_pos_as_xyz
'x,y,z'

loop_
_atom_site_label
_atom_site_type_symbol
_atom_site_fract_x
_atom_site_fract_y
_atom_site_fract_z
X1	C	0.008576	0.875596	0.999011
C2	C	0.990455	0.883640	0.998773
C3	C	0.987902	0.903304	0.998551
C4	C	0.003248	0.916246	0.998595
C5	C	0.021399	0.907668	0.998833
C6	C	0.024011	0.888003	0.999026
C7	C	0.000606	0.936386	0.998447
H8	H	0.972541	0.907950	0.998432
H9	H	0.977291	0.874275	0.998758
H10	H	0.039090	0.882274	0.999218
H11	H	0.035009	0.916127	0.998862
C12	C	0.982470	0.944964	0.997972
C13	C	0.979932	0.964644	0.997957
C14	C	0.995293	0.977140	0.998447
C15	C	0.013370	0.969066	0.998862
C16	C	0.015923	0.949372	0.998847
C17	C	0.991360	0.999565	0.998862
H18	H	0.964913	0.970536	0.997660
H19	H	0.968831	0.936519	0.997571
H20	H	0.031254	0.944682	0.999293
H21	H	0.026460	0.978431	0.999337
C22	C	0.009496	0.013709	0.997022
N23	N	0.003055	0.034858	0.997690
N24	N	0.989757	0.030717	0.989022
N25	N	0.983079	0.012255	0.992659
C26	C	0.002922	0.055710	0.999233
H27	H	0.019470	0.011052	0.009563
H28	H	0.017896	0.010607	0.983368
H29	H	0.982826	0.003157	0.012219
C30	C	0.002061	0.073163	0.001697
C31	C	0.998914	0.094283	0.007233
C32	C	0.012479	0.110712	0.998833
X33	C	0.000265	0.129100	0.005244
N34	N	0.979784	0.123164	0.000183
N35	N	0.978760	0.101510	0.002573
H36	H	0.969113	0.098824	0.013882
H37	H	0.977335	0.125227	0.985401
H38	H	0.027306	0.110519	0.005422
H39	H	0.001334	0.130481	0.021391
H40	H	0.013652	0.109732	0.982670
H41	H	0.000562	0.094832	0.023380

loop_
_geom_bond_atom_site_label_1
_geom_bond_atom_site_label_2
_geom_bond_distance
_ccdc_geom_bond_type
X1	C2	0.01983	. A
X1	C6	0.01980	. A
C2	C3	0.01983	. A
C2	H9	0.01616	. A
C3	C4	0.02007	. A
C3	H8	0.01605	. A
C4	C5	0.02008	. A
C4	C7	0.02031	. A
C5	C6	0.01984	. A
C5	H11	0.01602	. A
C6	H10	0.01613	. A
C7	C12	0.02007	. A
C7	C16	0.02008	. A
C12	C13	0.01984	. A
C12	H19	0.01605	. A
C13	C14	0.01981	. A
C13	H18	0.01614	. A
C14	C15	0.01980	. A
C14	C17	0.02277	. A
C15	C16	0.01986	. A
C15	H21	0.01610	. A
C16	H20	0.01604	. A
C17	C22	0.02307	. A
C17	N25	0.01637	. A
C17	H29	0.01625	. A
C22	N23	0.02212	. A
C22	H27	0.01624	. A
C22	H28	0.01633	. A
N23	N24	0.01640	. A
N23	C26	0.02091	. A
N24	N25	0.01997	. A
C26	C30	0.01765	. A
C30	C31	0.02206	. A
C31	C32	0.02290	. A
C31	N35	0.02191	. A
C31	H41	0.01624	. A
C32	X33	0.02299	. A
C32	H38	0.01623	. A
C32	H40	0.01623	. A
X33	N34	0.02192	. A
X33	H39	0.01624	. A
N34	N35	0.02181	. A
N34	H37	0.01512	. A
N35	H36	0.01511	. A
