data_93_PM
_symmetry_space_group_name_H-M	'P1'
_cell_length_a	67.195733
_cell_length_b	67.195733
_cell_length_c	67.195733
_cell_angle_alpha	90.000000
_cell_angle_beta	90.000000
_cell_angle_gamma	90.000000
_symmetry_Int_Tables_number 1

loop_
_symmetry_equiv_pos_as_xyz
'x,y,z'

loop_
_atom_site_label
_atom_site_type_symbol
_atom_site_fract_x
_atom_site_fract_y
_atom_site_fract_z
X1	C	0.013506	0.903329	0.003092
C2	C	0.995409	0.913062	0.003777
C3	C	0.994234	0.933390	0.004923
C4	C	0.009681	0.946278	0.005280
C5	C	0.027257	0.936560	0.004238
C6	C	0.029042	0.916291	0.003122
C7	C	0.006094	0.970134	0.009164
H8	H	0.979709	0.940251	0.006069
C9	C	0.975527	0.901439	0.003256
H10	H	0.043954	0.910070	0.002646
H11	H	0.040829	0.945326	0.004804
C12	C	0.019324	0.988855	0.002021
C13	C	0.004443	0.006922	0.996693
N14	N	0.986168	0.000165	0.006857
N15	N	0.986168	0.978229	0.003628
C16	C	0.009309	0.031179	0.993717
H17	H	0.974738	0.972515	0.011813
H18	H	0.987581	0.001921	0.021843
H19	H	0.028343	0.984971	0.989073
H20	H	0.001154	0.003231	0.981171
H21	H	0.029310	0.993260	0.014075
H22	H	0.006377	0.971235	0.025400
O23	O	0.009785	0.048398	0.008658
C24	C	0.994457	0.063681	0.981722
C25	C	0.993668	0.040585	0.979564
C26	C	0.006600	0.090722	0.008033
H27	H	0.978786	0.035465	0.983746
H28	H	0.998043	0.070810	0.967569
H29	H	0.979902	0.069113	0.986573
H30	H	0.996287	0.036090	0.964176
H31	H	0.024741	0.069173	0.990294
C32	C	0.010232	0.068577	0.997631
H33	H	0.023625	0.031849	0.986023
C34	C	0.955764	0.913002	0.001172
H35	H	0.952981	0.922273	0.014239
H36	H	0.943397	0.902510	0.999907
H37	H	0.955779	0.922303	0.987838
H38	H	0.974203	0.892554	0.016813
H39	H	0.975854	0.891141	0.990666
C40	C	0.015530	0.111660	0.998523
X41	N	0.008907	0.133239	0.004893
N42	N	0.998728	0.123179	0.013048
N43	N	0.999398	0.103327	0.015786
H44	H	0.031766	0.111184	0.000220
H45	H	0.013148	0.110797	0.982377
H46	H	0.010261	0.089754	0.023867

loop_
_geom_bond_atom_site_label_1
_geom_bond_atom_site_label_2
_geom_bond_distance
_ccdc_geom_bond_type
X1	C2	0.02056	. A
X1	C6	0.02023	. A
C2	C3	0.02039	. A
C2	C9	0.02304	. A
C3	C4	0.02012	. A
C3	H8	0.01610	. A
C4	C5	0.02011	. A
C4	C7	0.02443	. A
C5	C6	0.02038	. A
C5	H11	0.01617	. A
C6	H10	0.01616	. A
C7	C12	0.02401	. A
C7	N15	0.02221	. A
C7	H22	0.01628	. A
C9	C34	0.02299	. A
C9	H38	0.01626	. A
C9	H39	0.01627	. A
C12	C13	0.02401	. A
C12	H19	0.01625	. A
C12	H21	0.01626	. A
C13	N14	0.02198	. A
C13	C16	0.02492	. A
C13	H20	0.01629	. A
N14	N15	0.02217	. A
N14	H18	0.01515	. A
N15	H17	0.01518	. A
C16	O23	0.02280	. A
C16	C25	0.02310	. A
C16	H33	0.01627	. A
O23	C32	0.02300	. A
C24	C25	0.02321	. A
C24	H28	0.01625	. A
C24	H29	0.01628	. A
C24	C32	0.02293	. A
C25	H27	0.01628	. A
C25	H30	0.01624	. A
C26	C32	0.02473	. A
C26	C40	0.02467	. A
C26	N43	0.01646	. A
C26	H46	0.01628	. A
H31	C32	0.01627	. A
C34	H35	0.01626	. A
C34	H36	0.01627	. A
C34	H37	0.01626	. A
C40	X41	0.02345	. A
C40	H44	0.01633	. A
C40	H45	0.01634	. A
X41	N42	0.01647	. A
N42	N43	0.02005	. A
