data_95_PM
_symmetry_space_group_name_H-M	'P1'
_cell_length_a	46.833109
_cell_length_b	46.833109
_cell_length_c	46.833109
_cell_angle_alpha	90.000000
_cell_angle_beta	90.000000
_cell_angle_gamma	90.000000
_symmetry_Int_Tables_number 1

loop_
_symmetry_equiv_pos_as_xyz
'x,y,z'

loop_
_atom_site_label
_atom_site_type_symbol
_atom_site_fract_x
_atom_site_fract_y
_atom_site_fract_z
X1	C	0.014253	0.900179	0.996834
C2	C	0.988075	0.912372	0.999055
C3	C	0.983228	0.940578	0.000336
C4	C	0.004218	0.960244	0.999461
C5	C	0.030673	0.948628	0.997496
C6	C	0.035499	0.919824	0.996343
N7	N	0.995783	0.987532	0.000998
F8	F	0.955748	0.948799	0.002429
H9	H	0.968837	0.899368	0.999909
Br10	Br	0.073698	0.907332	0.993567
H11	H	0.048994	0.962870	0.996856
N12	N	0.012887	0.009162	0.998585
C13	C	0.997577	0.037945	0.005119
C14	C	0.013591	0.066707	0.998244
X15	C	0.990808	0.090814	0.004436
N16	N	0.964929	0.076871	0.992820
N17	N	0.968559	0.045461	0.994678
H18	H	0.953057	0.038137	0.008066
H19	H	0.963499	0.080565	0.971446
H20	H	0.032638	0.069312	0.011439
H21	H	0.988310	0.092458	0.027582
H22	H	0.019912	0.067112	0.975781
H23	H	0.995228	0.037732	0.028521

loop_
_geom_bond_atom_site_label_1
_geom_bond_atom_site_label_2
_geom_bond_distance
_ccdc_geom_bond_type
X1	C2	0.02896	. A
X1	C6	0.02894	. A
C2	C3	0.02865	. A
C2	H9	0.02324	. A
C3	C4	0.02878	. A
C3	F8	0.02876	. A
C4	C5	0.02896	. A
C4	N7	0.02860	. A
C5	C6	0.02923	. A
C5	H11	0.02321	. A
C6	Br10	0.04029	. A
N7	N12	0.02768	. A
N12	C13	0.03325	. A
C13	C14	0.03363	. A
C13	N17	0.03174	. A
C13	H23	0.02352	. A
C14	X15	0.03374	. A
C14	H20	0.02332	. A
C14	H22	0.02334	. A
X15	N16	0.03161	. A
X15	H21	0.02334	. A
N16	N17	0.03167	. A
N16	H19	0.02174	. A
N17	H18	0.02175	. A
