data_96_PM
_symmetry_space_group_name_H-M	'P1'
_cell_length_a	40.751684
_cell_length_b	40.751684
_cell_length_c	40.751684
_cell_angle_alpha	90.000000
_cell_angle_beta	90.000000
_cell_angle_gamma	90.000000
_symmetry_Int_Tables_number 1

loop_
_symmetry_equiv_pos_as_xyz
'x,y,z'

loop_
_atom_site_label
_atom_site_type_symbol
_atom_site_fract_x
_atom_site_fract_y
_atom_site_fract_z
X1	C	0.999417	0.917429	0.998951
C2	C	0.968449	0.928840	0.995172
C3	C	0.961186	0.961182	0.996178
C4	C	0.984498	0.984249	0.001577
C5	C	0.014950	0.972102	0.007490
C6	C	0.021993	0.940005	0.005380
N7	N	0.978068	0.016223	0.001233
Cl8	Cl	0.920451	0.972175	0.991049
H9	H	0.948229	0.911761	0.991099
H10	H	0.046924	0.931883	0.009969
C11	C	0.057746	0.012296	0.997994
N12	N	0.993332	0.044344	0.002386
C13	C	0.977234	0.076097	0.001233
X14	C	0.961627	0.105765	0.000104
H15	H	0.935101	0.103630	0.999663
H16	H	0.004276	0.077423	0.001552
H17	H	0.082947	0.003462	0.996178
H18	H	0.046188	0.013499	0.973799
H19	H	0.057623	0.036590	0.009380
O20	O	0.039759	0.991046	0.019613

loop_
_geom_bond_atom_site_label_1
_geom_bond_atom_site_label_2
_geom_bond_distance
_ccdc_geom_bond_type
X1	C2	0.03322	. A
X1	C6	0.03257	. A
C2	C3	0.03316	. A
C2	H9	0.02678	. A
C3	C4	0.03324	. A
C3	Cl8	0.04250	. A
C4	C5	0.03331	. A
C4	N7	0.03262	. A
C5	C6	0.03293	. A
C5	O20	0.03349	. A
C6	H10	0.02662	. A
N7	N12	0.03202	. A
C11	H17	0.02677	. A
C11	H18	0.02684	. A
C11	H19	0.02683	. A
C11	O20	0.03525	. A
N12	C13	0.03562	. A
C13	X14	0.03354	. A
C13	H16	0.02708	. A
X14	H15	0.02662	. A
