data_97_PM
_symmetry_space_group_name_H-M	'P1'
_cell_length_a	43.150155
_cell_length_b	43.150155
_cell_length_c	43.150155
_cell_angle_alpha	90.000000
_cell_angle_beta	90.000000
_cell_angle_gamma	90.000000
_symmetry_Int_Tables_number 1

loop_
_symmetry_equiv_pos_as_xyz
'x,y,z'

loop_
_atom_site_label
_atom_site_type_symbol
_atom_site_fract_x
_atom_site_fract_y
_atom_site_fract_z
X1	C	0.995619	0.930793	0.996986
C2	C	0.968110	0.944768	0.991239
C3	C	0.962664	0.975266	0.994414
C4	C	0.985376	0.995706	0.003776
C5	C	0.013510	0.981222	0.010242
C6	C	0.018145	0.950144	0.006835
C7	C	0.978655	0.027085	0.008759
H8	H	0.939536	0.984003	0.989362
H9	H	0.948273	0.931303	0.983498
C10	C	0.041482	0.940851	0.012838
C11	C	0.053347	0.017212	0.997844
N12	N	0.065746	0.930306	0.012166
C13	C	0.963522	0.049588	0.992374
C14	C	0.960463	0.082542	0.000903
H15	H	0.952699	0.043562	0.970358
H16	H	0.988272	0.035660	0.030428
X17	C	0.955434	0.114941	0.000370
H18	H	0.071169	0.031117	0.009246
H19	H	0.064332	0.000086	0.982734
H20	H	0.038237	0.032322	0.984240
O21	O	0.035410	0.001523	0.021389

loop_
_geom_bond_atom_site_label_1
_geom_bond_atom_site_label_2
_geom_bond_distance
_ccdc_geom_bond_type
X1	C2	0.03139	. A
X1	C6	0.03129	. A
C2	C3	0.03114	. A
C2	H9	0.02519	. A
C3	C4	0.03196	. A
C3	H8	0.02523	. A
C4	C5	0.03230	. A
C4	C7	0.03247	. A
C5	C6	0.03161	. A
C5	O21	0.03188	. A
C6	C10	0.02583	. A
C7	C13	0.03168	. A
C7	H16	0.02521	. A
C10	N12	0.02646	. A
C11	H18	0.02532	. A
C11	H19	0.02534	. A
C11	H20	0.02533	. A
C11	O21	0.03350	. A
C13	C14	0.03418	. A
C13	H15	0.02526	. A
C14	X17	0.03279	. A
