data_98_PM
_symmetry_space_group_name_H-M	'P1'
_cell_length_a	42.969036
_cell_length_b	42.969036
_cell_length_c	42.969036
_cell_angle_alpha	90.000000
_cell_angle_beta	90.000000
_cell_angle_gamma	90.000000
_symmetry_Int_Tables_number 1

loop_
_symmetry_equiv_pos_as_xyz
'x,y,z'

loop_
_atom_site_label
_atom_site_type_symbol
_atom_site_fract_x
_atom_site_fract_y
_atom_site_fract_z
X1	C	0.009073	0.908616	0.998143
C2	C	0.980425	0.922068	0.997817
C3	C	0.977074	0.953276	0.998329
C4	C	0.002185	0.971964	0.999283
C5	C	0.030321	0.958722	0.999446
C6	C	0.033626	0.927840	0.998864
C7	C	0.997623	0.007478	0.000447
N8	N	0.948402	0.966169	0.997910
Br9	Br	0.942281	0.899168	0.996956
H10	H	0.057155	0.918554	0.999051
H11	H	0.051173	0.973035	0.000098
C12	C	0.026318	0.029354	0.000680
N13	N	0.015450	0.062308	0.999400
N14	N	0.998345	0.053511	0.982294
N15	N	0.984986	0.029587	0.997305
C16	C	0.013123	0.093796	0.999330
H17	H	0.042237	0.023885	0.981340
H18	H	0.039258	0.025910	0.022370
H19	H	0.982333	0.013413	0.019949
X20	C	0.989804	0.114811	0.001262
H21	H	0.965856	0.106736	0.003356
H22	H	0.038397	0.097543	0.997375
H23	H	0.945120	0.988697	0.004520
H24	H	0.929435	0.953556	0.004473

loop_
_geom_bond_atom_site_label_1
_geom_bond_atom_site_label_2
_geom_bond_distance
_ccdc_geom_bond_type
X1	C2	0.03165	. A
X1	C6	0.03119	. A
C2	C3	0.03139	. A
C2	Br9	0.04450	. A
C3	C4	0.03132	. A
C3	N8	0.03144	. A
C4	C5	0.03110	. A
C4	C7	0.03582	. A
C5	C6	0.03106	. A
C5	H11	0.02530	. A
C6	H10	0.02530	. A
C7	C12	0.03608	. A
C7	N15	0.02566	. A
C7	H19	0.02548	. A
N8	H23	0.02371	. A
N8	H24	0.02371	. A
C12	N13	0.03472	. A
C12	H17	0.02564	. A
C12	H18	0.02549	. A
N13	N14	0.02574	. A
N13	C16	0.03157	. A
N14	N15	0.03124	. A
C16	X20	0.03145	. A
C16	H22	0.02562	. A
X20	H21	0.02536	. A
