data_99_PM
_symmetry_space_group_name_H-M	'P1'
_cell_length_a	43.055925
_cell_length_b	43.055925
_cell_length_c	43.055925
_cell_angle_alpha	90.000000
_cell_angle_beta	90.000000
_cell_angle_gamma	90.000000
_symmetry_Int_Tables_number 1

loop_
_symmetry_equiv_pos_as_xyz
'x,y,z'

loop_
_atom_site_label
_atom_site_type_symbol
_atom_site_fract_x
_atom_site_fract_y
_atom_site_fract_z
X1	C	0.029743	0.916766	0.013633
C2	C	0.001710	0.926846	0.004134
C3	C	0.997947	0.956644	0.996377
C4	C	0.020639	0.977896	0.998328
C5	C	0.048765	0.967560	0.007363
C6	C	0.052969	0.937530	0.014702
C7	C	0.013299	0.011433	0.987458
H8	H	0.975326	0.963356	0.987598
C9	C	0.948686	0.914443	0.016792
H10	H	0.075892	0.929958	0.022134
Cl11	Cl	0.080816	0.991576	0.009197
O12	O	0.028187	0.037678	0.003205
C13	C	0.978577	0.056352	0.991708
C14	C	0.978740	0.020886	0.990222
C15	C	0.019083	0.096253	0.006596
H16	H	0.965246	0.012641	0.970411
H17	H	0.965733	0.066478	0.972315
H18	H	0.968033	0.064039	0.013517
H19	H	0.968590	0.011689	0.011636
H20	H	0.020197	0.067268	0.966184
C21	C	0.013044	0.065294	0.990501
H22	H	0.019942	0.013013	0.962978
X23	C	0.004032	0.122057	0.996818
H24	H	0.987798	0.120245	0.977494
H25	H	0.035526	0.096741	0.025757
H26	H	0.938141	0.935532	0.007386
H27	H	0.953888	0.917579	0.041434
H28	H	0.932428	0.895166	0.013982
O29	O	0.977021	0.907081	0.000139

loop_
_geom_bond_atom_site_label_1
_geom_bond_atom_site_label_2
_geom_bond_distance
_ccdc_geom_bond_type
X1	C2	0.03127	. A
X1	C6	0.03117	. A
C2	C3	0.03102	. A
C2	O29	0.03188	. A
C3	C4	0.03115	. A
C3	H8	0.02518	. A
C4	C5	0.03130	. A
C4	C7	0.03601	. A
C5	C6	0.03120	. A
C5	Cl11	0.04009	. A
C6	H10	0.02526	. A
C7	O12	0.03404	. A
C7	C14	0.03594	. A
C7	H22	0.02541	. A
C9	H26	0.02539	. A
C9	H27	0.02538	. A
C9	H28	0.02537	. A
C9	O29	0.03368	. A
O12	C21	0.03396	. A
C13	C14	0.03550	. A
C13	H17	0.02537	. A
C13	H18	0.02541	. A
C13	C21	0.03563	. A
C14	H16	0.02535	. A
C14	H19	0.02542	. A
C15	C21	0.03541	. A
C15	X23	0.03143	. A
C15	H25	0.02525	. A
H20	C21	0.02542	. A
X23	H24	0.02530	. A
