data_9_PM
_symmetry_space_group_name_H-M	'P1'
_cell_length_a	30.447310
_cell_length_b	30.447310
_cell_length_c	30.447310
_cell_angle_alpha	90.000000
_cell_angle_beta	90.000000
_cell_angle_gamma	90.000000
_symmetry_Int_Tables_number 1

loop_
_symmetry_equiv_pos_as_xyz
'x,y,z'

loop_
_atom_site_label
_atom_site_type_symbol
_atom_site_fract_x
_atom_site_fract_y
_atom_site_fract_z
X1	C	0.978528	0.941463	0.999884
C2	C	0.938163	0.959067	0.993512
C3	C	0.932645	0.002486	0.989473
C4	C	0.966901	0.030436	0.992396
C5	C	0.007332	0.012799	0.999588
C6	C	0.014229	0.968592	0.002676
N7	N	0.960760	0.074710	0.984710
F8	F	0.891722	0.018087	0.982247
H9	H	0.908867	0.938671	0.991115
C10	C	0.061097	0.953188	0.009836
N11	N	0.043296	0.042786	0.003431
H12	H	0.065334	0.918078	0.014664
H13	H	0.081230	0.962253	0.981262
H14	H	0.075252	0.968428	0.039231
H15	H	0.074957	0.033852	0.999786
H16	H	0.037351	0.075334	0.998899
X17	N	0.962336	0.099769	0.017291

loop_
_geom_bond_atom_site_label_1
_geom_bond_atom_site_label_2
_geom_bond_distance
_ccdc_geom_bond_type
X1	C2	0.04450	. A
X1	C6	0.04493	. A
C2	C3	0.04395	. A
C2	H9	0.03578	. A
C3	C4	0.04431	. A
C3	F8	0.04439	. A
C4	C5	0.04469	. A
C4	N7	0.04535	. A
C5	C6	0.04485	. A
C5	N11	0.04698	. A
C6	C10	0.04985	. A
N7	X17	0.04113	. A
C10	H12	0.03569	. A
C10	H13	0.03611	. A
C10	H14	0.03601	. A
N11	H15	0.03310	. A
N11	H16	0.03340	. A
