data_9_PM
_symmetry_space_group_name_H-M	'P1'
_cell_length_a	36.895501
_cell_length_b	36.895501
_cell_length_c	36.895501
_cell_angle_alpha	90.000000
_cell_angle_beta	90.000000
_cell_angle_gamma	90.000000
_symmetry_Int_Tables_number 1

loop_
_symmetry_equiv_pos_as_xyz
'x,y,z'

loop_
_atom_site_label
_atom_site_type_symbol
_atom_site_fract_x
_atom_site_fract_y
_atom_site_fract_z
X1	C	0.017183	0.896174	0.997577
C2	C	0.986420	0.912599	0.988280
C3	C	0.983547	0.948457	0.989608
C4	C	0.010813	0.970465	0.000477
C5	C	0.041522	0.953118	0.011508
C6	C	0.044286	0.916962	0.009421
C7	C	0.005149	0.007109	0.999827
H8	H	0.957961	0.958973	0.979634
H9	H	0.963219	0.897122	0.978740
H10	H	0.069140	0.904196	0.018853
Cl11	Cl	0.077407	0.972281	0.035061
C12	C	0.971215	0.019820	0.005085
C13	C	0.962081	0.054811	0.004624
X14	C	0.988128	0.079801	0.999284
C15	C	0.021953	0.067875	0.993511
C16	C	0.030707	0.032667	0.992996
C17	C	0.922157	0.063728	0.011183
H18	H	0.949315	0.001336	0.011562
N19	N	0.064370	0.025593	0.981044
H20	H	0.043283	0.087362	0.987522
H21	H	0.069276	0.001932	0.967736
H22	H	0.085673	0.029523	0.998173
H23	H	0.906112	0.039823	0.018040
H24	H	0.910069	0.075383	0.986763
H25	H	0.919013	0.082890	0.033489

loop_
_geom_bond_atom_site_label_1
_geom_bond_atom_site_label_2
_geom_bond_distance
_ccdc_geom_bond_type
X1	C2	0.03609	. A
X1	C6	0.03615	. A
C2	C3	0.03600	. A
C2	H9	0.02948	. A
C3	C4	0.03669	. A
C3	H8	0.02941	. A
C4	C5	0.03695	. A
C4	C7	0.03708	. A
C5	C6	0.03632	. A
C5	Cl11	0.04701	. A
C6	H10	0.02949	. A
C7	C12	0.03662	. A
C7	C16	0.03679	. A
C12	C13	0.03617	. A
C12	H18	0.02938	. A
C13	X14	0.03649	. A
C13	C17	0.04143	. A
X14	C15	0.03633	. A
C15	C16	0.03628	. A
C15	H20	0.02951	. A
C16	N19	0.03642	. A
C17	H23	0.02960	. A
C17	H24	0.02964	. A
C17	H25	0.02957	. A
N19	H21	0.02759	. A
N19	H22	0.02762	. A
