data_9_PM
_symmetry_space_group_name_H-M	'P1'
_cell_length_a	53.840144
_cell_length_b	53.840144
_cell_length_c	53.840144
_cell_angle_alpha	90.000000
_cell_angle_beta	90.000000
_cell_angle_gamma	90.000000
_symmetry_Int_Tables_number 1

loop_
_symmetry_equiv_pos_as_xyz
'x,y,z'

loop_
_atom_site_label
_atom_site_type_symbol
_atom_site_fract_x
_atom_site_fract_y
_atom_site_fract_z
X1	C	0.000544	0.914689	0.999861
C2	C	0.979073	0.927338	0.998078
C3	C	0.976956	0.952338	0.997205
C4	C	0.996941	0.967977	0.997873
C5	C	0.019062	0.955273	0.999694
C6	C	0.020715	0.929567	0.000901
C7	C	0.991146	0.998177	0.996332
C8	C	0.950136	0.961513	0.994957
H9	H	0.961744	0.917048	0.997223
C10	C	0.043022	0.918683	0.003278
C11	C	0.040644	0.967698	0.000474
C12	C	0.062598	0.956461	0.002777
C13	C	0.063675	0.931907	0.004337
H14	H	0.040979	0.987572	0.999211
F15	F	0.083586	0.969816	0.003613
H16	H	0.081432	0.922472	0.006380
H17	H	0.045139	0.898679	0.004616
H18	H	0.936893	0.946320	0.992413
H19	H	0.947684	0.973753	0.979003
H20	H	0.944192	0.971041	0.011822
C21	C	0.008011	0.023047	0.993676
C22	C	0.994266	0.046691	0.006714
N23	N	0.970511	0.033671	0.012212
N24	N	0.975916	0.007260	0.017227
C25	C	0.987394	0.074700	0.995106
H26	H	0.959069	0.998716	0.017747
H27	H	0.960109	0.032984	0.996406
H28	H	0.025470	0.021041	0.003668
H29	H	0.003404	0.049663	0.024601
H30	H	0.012431	0.026688	0.974174
H31	H	0.979389	0.999496	0.979838
C32	C	0.002346	0.101650	0.999043
X33	N	0.989363	0.128192	0.997205
N34	N	0.973037	0.116491	0.993546
N35	N	0.975451	0.091565	0.994994
H36	H	0.017650	0.101873	0.985485
H37	H	0.011892	0.100982	0.017078
H38	H	0.968133	0.076966	0.001235

loop_
_geom_bond_atom_site_label_1
_geom_bond_atom_site_label_2
_geom_bond_distance
_ccdc_geom_bond_type
X1	C2	0.02498	. A
X1	C6	0.02509	. A
C2	C3	0.02510	. A
C2	H9	0.02017	. A
C3	C4	0.02539	. A
C3	C8	0.02844	. A
C4	C5	0.02557	. A
C4	C7	0.03079	. A
C5	C6	0.02579	. A
C5	C11	0.02492	. A
C6	C10	0.02493	. A
C7	C21	0.03017	. A
C7	N24	0.02741	. A
C7	H31	0.02030	. A
C8	H18	0.02031	. A
C8	H19	0.02026	. A
C8	H20	0.02026	. A
C10	C13	0.02455	. A
C10	H17	0.02016	. A
C11	C12	0.02477	. A
C11	H14	0.01992	. A
C12	C13	0.02463	. A
C12	F15	0.02489	. A
C13	H16	0.02021	. A
C21	C22	0.03030	. A
C21	H28	0.02022	. A
C21	H30	0.02033	. A
C22	N23	0.02764	. A
C22	C25	0.03109	. A
C22	H29	0.02030	. A
N23	N24	0.02742	. A
N23	H27	0.01893	. A
N24	H26	0.01890	. A
C25	C32	0.03107	. A
C25	N35	0.02067	. A
C25	H38	0.02034	. A
C32	X33	0.02960	. A
C32	H36	0.02045	. A
C32	H37	0.02042	. A
X33	N34	0.02042	. A
N34	N35	0.02508	. A
