data_2_PM
_symmetry_space_group_name_H-M	'P1'
_cell_length_a	44.384578
_cell_length_b	44.384578
_cell_length_c	44.384578
_cell_angle_alpha	90.000000
_cell_angle_beta	90.000000
_cell_angle_gamma	90.000000
_symmetry_Int_Tables_number 1

loop_
_symmetry_equiv_pos_as_xyz
'x,y,z'

loop_
_atom_site_label
_atom_site_type_symbol
_atom_site_fract_x
_atom_site_fract_y
_atom_site_fract_z
X_C1	X_C	0.021769	0.926585	0.000374
C1	C	0.995183	0.940464	0.006209
C2	C	0.993155	0.970925	0.007741
C3	C	0.018232	0.987462	0.002334
C4	C	0.044750	0.973718	0.996724
C5	C	0.046687	0.943483	0.996003
C6	C	0.017443	0.019523	0.002627
C7	C	0.941516	0.983001	0.998031
H1	H	0.975041	0.927081	0.010377
H2	H	0.068767	0.933930	0.991610
H3	H	0.064959	0.987124	0.992939
C8	C	0.019110	0.046536	0.002695
N1	N	0.024427	0.076096	0.003123
N2	N	0.001424	0.090899	0.997377
N3	N	0.009602	0.121022	0.998977
X_N1	X_N	0.987545	0.137829	0.995395
H4	H	0.927186	0.964458	0.005624
H5	H	0.947374	0.980455	0.974239
H6	H	0.928673	0.003954	0.000554
O1	O	0.967155	0.985457	0.017046

loop_
_geom_bond_atom_site_label_1
_geom_bond_atom_site_label_2
_geom_bond_distance
X_C1	C1	0.03055
X_C1	C5	0.03042
C1	C2	0.03057
C1	H1	0.02454
C2	C3	0.03052
C2	O1	0.03121
C3	C4	0.03039
C3	C6	0.03207
C4	C5	0.03031
C4	H3	0.02455
C5	H2	0.02446
C6	C8	0.02707
C7	H4	0.02463
C7	H5	0.02463
C7	H6	0.02470
C7	O1	0.03202
C8	N1	0.03004
N1	N2	0.02795
N2	N3	0.03125
N3	X_N1	0.02796
