data_NewTest_PM
_symmetry_space_group_name_H-M	'P1'
_cell_length_a	45.000000
_cell_length_b	45.000000
_cell_length_c	45.000000
_cell_angle_alpha	90.000000
_cell_angle_beta	90.000000
_cell_angle_gamma	90.000000
_symmetry_Int_Tables_number 1

loop_
_symmetry_equiv_pos_as_xyz
'x,y,z'

loop_
_atom_site_label
_atom_site_type_symbol
_atom_site_fract_x
_atom_site_fract_y
_atom_site_fract_z
X1	C	0.003874	-0.172257	0.001703
C1	C	-0.021060	-0.156790	-0.003853
C2	C	-0.020215	-0.126946	-0.005520
C3	C	0.005074	-0.110701	-0.001075
C4	C	0.030096	-0.126879	0.005614
C5	C	0.029140	-0.157057	0.006503
C6	C	0.002740	-0.077123	-0.003208
H1	H	-0.041349	-0.116457	-0.010520
H2	H	-0.042193	-0.168190	-0.007031
H3	H	0.049407	-0.168968	0.012014
Br1	Br	0.068029	-0.111234	0.015636
C7	C	-0.023393	-0.062901	0.001992
C8	C	-0.026260	-0.033190	0.000369
C9	C	-0.002704	-0.015168	-0.005720
C10	C	0.023274	-0.028923	-0.011453
C11	C	0.025585	-0.058923	-0.010831
C12	C	-0.006860	0.018543	-0.005520
H4	H	-0.048082	-0.023946	0.004236
H5	H	-0.043482	-0.074879	0.007880
H6	H	0.047185	-0.067568	-0.016653
H7	H	0.042940	-0.016034	-0.016564
C13	C	0.019962	0.039477	-0.002186
C14	C	0.007207	0.068010	0.012214
N1	N	-0.023660	0.059788	0.020147
N2	N	-0.024704	0.028188	0.020103
C15	C	0.008696	0.096766	-0.007320
H8	H	-0.045949	0.020410	0.018680
H9	H	-0.038104	0.068121	0.004725
H10	H	0.036496	0.029788	0.012947
H11	H	0.019651	0.072210	0.032792
H12	H	0.030874	0.043610	-0.023542
H13	H	-0.018504	0.024543	-0.026186
O1	O	0.034007	0.115166	0.000458
C16	C	-0.006682	0.147699	-0.005053
C17	C	-0.018571	0.116766	-0.003520
H14	H	-0.035549	0.112343	-0.020342
H15	H	-0.005393	0.155143	-0.028208
H16	H	-0.020638	0.163499	0.007125
H17	H	-0.028838	0.114099	0.018414
H18	H	0.022762	0.144632	0.032969
X2	C	0.023896	0.144388	0.008614
H19	H	0.011296	0.090943	-0.030831

loop_
_geom_bond_atom_site_label_1
_geom_bond_atom_site_label_2
_geom_bond_distance
_ccdc_geom_bond_type
C1	C2	0.02990	. A
C1	H2	0.02422	. A
C2	C3	0.03038	. A
C2	H1	0.02412	. A
C3	C4	0.03054	. A
C3	C6	0.03373	. A
C4	C5	0.03021	. A
C4	Br1	0.04224	. A
C5	H3	0.02415	. A
C6	C7	0.03020	. A
C6	C11	0.03019	. A
C7	C8	0.02989	. A
C7	H5	0.02412	. A
C8	C9	0.03028	. A
C8	H4	0.02401	. A
C9	C10	0.02995	. A
C9	C12	0.03397	. A
C10	C11	0.03010	. A
C10	H7	0.02406	. A
C11	H6	0.02398	. A
C12	C13	0.03419	. A
C12	N2	0.03268	. A
C12	H13	0.02447	. A
C13	C14	0.03441	. A
C13	H10	0.02442	. A
C13	H12	0.02434	. A
C14	N1	0.03291	. A
C14	C15	0.03479	. A
C14	H11	0.02441	. A
N1	N2	0.03162	. A
N1	H9	0.02271	. A
N2	H8	0.02267	. A
C15	O1	0.03224	. A
C15	C17	0.03403	. A
C15	H19	0.02436	. A
C16	C17	0.03317	. A
C16	H15	0.02436	. A
C16	H16	0.02435	. A
C17	H14	0.02431	. A
C17	H17	0.02436	. A
