data_10_PM
_symmetry_space_group_name_H-M	'P1'
_cell_length_a	40.050155
_cell_length_b	40.050155
_cell_length_c	40.050155
_cell_angle_alpha	90.000000
_cell_angle_beta	90.000000
_cell_angle_gamma	90.000000
_symmetry_Int_Tables_number 1

loop_
_symmetry_equiv_pos_as_xyz
'x,y,z'

loop_
_atom_site_label
_atom_site_type_symbol
_atom_site_fract_x
_atom_site_fract_y
_atom_site_fract_z
X1	C	0.001650	0.939994	0.013007
C2	C	0.972961	0.955625	0.003369
C3	C	0.973111	0.989532	0.001022
C4	C	0.999978	0.008134	0.009486
C5	C	0.027793	0.991829	0.018875
C6	C	0.029441	0.958247	0.019973
C7	C	0.999728	0.046036	0.008962
H8	H	0.950689	0.002391	0.992932
C9	C	0.941701	0.935450	0.993931
C10	C	0.085695	0.951280	0.005067
H11	H	0.049640	0.005987	0.026490
C12	C	0.031588	0.063315	0.998076
N13	N	0.017506	0.093352	0.984618
N14	N	0.984597	0.089008	0.976128
N15	N	0.975109	0.060493	0.985292
N16	N	0.029615	0.123589	0.994305
H17	H	0.048791	0.068333	0.018700
H18	H	0.044572	0.050406	0.977776
H19	H	0.992737	0.054676	0.034031
C20	C	0.910415	0.953952	0.982470
H21	H	0.890814	0.935850	0.976428
H22	H	0.915034	0.968958	0.960123
H23	H	0.900777	0.970132	0.002295
H24	H	0.948367	0.917772	0.974056
H25	H	0.933885	0.921068	0.015853
X26	N	0.006170	0.142990	0.000872
H27	H	0.077755	0.945612	0.979499
H28	H	0.107218	0.935675	0.011034
H29	H	0.093111	0.977472	0.007189
O30	O	0.059553	0.942841	0.028138

loop_
_geom_bond_atom_site_label_1
_geom_bond_atom_site_label_2
_geom_bond_distance
_ccdc_geom_bond_type
X1	C2	0.03406	. A
X1	C6	0.03397	. A
C2	C3	0.03399	. A
C2	C9	0.03838	. A
C3	C4	0.03376	. A
C3	H8	0.02708	. A
C4	C5	0.03358	. A
C4	C7	0.03791	. A
C5	C6	0.03364	. A
C5	H11	0.02712	. A
C6	O30	0.03480	. A
C7	C12	0.03784	. A
C7	N15	0.03709	. A
C7	H19	0.02742	. A
C9	C20	0.03811	. A
C9	H24	0.02742	. A
C9	H25	0.02736	. A
C10	H27	0.02737	. A
C10	H28	0.02725	. A
C10	H29	0.02730	. A
C10	O30	0.03587	. A
C12	N13	0.03580	. A
C12	H17	0.02732	. A
C12	H18	0.02734	. A
N13	N14	0.03426	. A
N13	N16	0.03398	. A
N14	N15	0.03142	. A
N16	X26	0.03113	. A
C20	H21	0.02736	. A
C20	H22	0.02731	. A
C20	H23	0.02734	. A
