data_2_PM
_symmetry_space_group_name_H-M	'P1'
_cell_length_a	44.294243
_cell_length_b	44.294243
_cell_length_c	44.294243
_cell_angle_alpha	90.000000
_cell_angle_beta	90.000000
_cell_angle_gamma	90.000000
_symmetry_Int_Tables_number 1

loop_
_symmetry_equiv_pos_as_xyz
'x,y,z'

loop_
_atom_site_label
_atom_site_type_symbol
_atom_site_fract_x
_atom_site_fract_y
_atom_site_fract_z
X1	C	0.997120	0.916279	0.999190
C2	C	0.970728	0.929825	0.993433
C3	C	0.967612	0.959671	0.995149
C4	C	0.990595	0.978071	0.002712
C5	C	0.016784	0.963960	0.010930
C6	C	0.020170	0.933708	0.008424
C7	C	0.986486	0.008707	0.001087
H8	H	0.945758	0.968385	0.988263
H9	H	0.951177	0.916866	0.986119
C10	C	0.071328	0.923865	0.994066
C11	C	0.038886	0.978229	0.024905
C12	C	0.959146	0.022162	0.003254
C13	C	0.955715	0.052234	0.001877
C14	C	0.979487	0.070363	0.997497
C15	C	0.006376	0.057404	0.993998
C16	C	0.009649	0.027693	0.995691
C17	C	0.977862	0.100479	0.996481
H18	H	0.933229	0.061716	0.004631
H19	H	0.938782	0.009226	0.007611
H20	H	0.032203	0.019769	0.990747
H21	H	0.026356	0.070995	0.989528
N22	N	0.057918	0.990420	0.037164
H23	H	0.062026	0.929757	0.971941
H24	H	0.083971	0.902756	0.992327
H25	H	0.086364	0.941791	0.001877
O26	O	0.047126	0.919892	0.015807
X27	C	0.955376	0.120753	0.999326
H28	H	0.932100	0.113822	0.003164
H29	H	0.999671	0.111203	0.992801

loop_
_geom_bond_atom_site_label_1
_geom_bond_atom_site_label_2
_geom_bond_distance
_ccdc_geom_bond_type
X1	C2	0.03022	. A
X1	C6	0.03034	. A
C2	C3	0.03006	. A
C2	H9	0.02457	. A
C3	C4	0.03040	. A
C3	H8	0.02451	. A
C4	C5	0.03086	. A
C4	C7	0.03095	. A
C5	C6	0.03054	. A
C5	C11	0.02979	. A
C6	O26	0.03118	. A
C7	C12	0.03055	. A
C7	C16	0.03043	. A
C10	H23	0.02471	. A
C10	H24	0.02467	. A
C10	H25	0.02467	. A
C10	O26	0.03277	. A
C11	N22	0.02571	. A
C12	C13	0.03030	. A
C12	H19	0.02452	. A
C13	C14	0.03022	. A
C13	H18	0.02456	. A
C14	C15	0.03005	. A
C14	C17	0.03018	. A
C15	C16	0.02994	. A
C15	H21	0.02457	. A
C16	H20	0.02441	. A
C17	X27	0.03041	. A
C17	H29	0.02458	. A
X27	H28	0.02459	. A
