data_3_PM
_symmetry_space_group_name_H-M	'P1'
_cell_length_a	44.504673
_cell_length_b	44.504673
_cell_length_c	44.504673
_cell_angle_alpha	90.000000
_cell_angle_beta	90.000000
_cell_angle_gamma	90.000000
_symmetry_Int_Tables_number 1

loop_
_symmetry_equiv_pos_as_xyz
'x,y,z'

loop_
_atom_site_label
_atom_site_type_symbol
_atom_site_fract_x
_atom_site_fract_y
_atom_site_fract_z
X1	C	0.014656	0.916340	0.001679
C2	C	0.987917	0.931238	0.004465
C3	C	0.987400	0.961392	0.005094
C4	C	0.012274	0.977705	0.002578
C5	C	0.038361	0.963324	0.999904
C6	C	0.040024	0.933215	0.999589
C7	C	0.010431	0.007275	0.002510
H8	H	0.966211	0.973323	0.007678
C9	C	0.932822	0.929732	0.997207
N10	N	0.067864	0.921666	0.996915
H11	H	0.058921	0.976469	0.997949
H12	H	0.936372	0.942450	0.976468
H13	H	0.924081	0.944450	0.014846
H14	H	0.916621	0.911756	0.992961
O15	O	0.960841	0.916273	0.007161
C16	C	0.007466	0.033744	0.002196
C17	C	0.003129	0.062999	0.001679
H18	H	0.071594	0.899218	0.998129
H19	H	0.082581	0.930563	0.981816
C20	C	0.975222	0.074121	0.000937
C21	C	0.970481	0.103781	0.000376
X22	C	0.993489	0.123217	0.000555
C23	C	0.021487	0.111915	0.001229
C24	C	0.026250	0.082233	0.001791
H25	H	0.947404	0.111870	0.999769
H26	H	0.955943	0.059089	0.000780
H27	H	0.049236	0.073897	0.002375
H28	H	0.040923	0.126745	0.001364

loop_
_geom_bond_atom_site_label_1
_geom_bond_atom_site_label_2
_geom_bond_distance
_ccdc_geom_bond_type
X1	C2	0.03074	. A
X1	C6	0.03054	. A
C2	C3	0.03017	. A
C2	O15	0.03105	. A
C3	C4	0.02985	. A
C3	H8	0.02445	. A
C4	C5	0.02991	. A
C4	C7	0.02963	. A
C5	C6	0.03016	. A
C5	H11	0.02448	. A
C6	N10	0.03026	. A
C7	C16	0.02664	. A
C9	H12	0.02459	. A
C9	H13	0.02458	. A
C9	H14	0.02457	. A
C9	O15	0.03264	. A
N10	H18	0.02279	. A
N10	H19	0.02289	. A
C16	C17	0.02958	. A
C17	C20	0.03005	. A
C17	C24	0.03008	. A
C20	C21	0.03004	. A
C20	H26	0.02445	. A
C21	X22	0.03012	. A
C21	H25	0.02446	. A
X22	C23	0.03020	. A
C23	C24	0.03007	. A
C23	H28	0.02445	. A
C24	H27	0.02446	. A
