data_7_PM
_symmetry_space_group_name_H-M	'P1'
_cell_length_a	44.163229
_cell_length_b	44.163229
_cell_length_c	44.163229
_cell_angle_alpha	90.000000
_cell_angle_beta	90.000000
_cell_angle_gamma	90.000000
_symmetry_Int_Tables_number 1

loop_
_symmetry_equiv_pos_as_xyz
'x,y,z'

loop_
_atom_site_label
_atom_site_type_symbol
_atom_site_fract_x
_atom_site_fract_y
_atom_site_fract_z
X1	C	0.021897	0.875049	0.003415
C2	C	0.995064	0.887979	0.999294
C3	C	0.992166	0.917868	0.000992
C4	C	0.015534	0.936639	0.006992
C5	C	0.042706	0.922962	0.011521
C6	C	0.045514	0.892983	0.009778
C7	C	0.010734	0.967004	0.006336
H8	H	0.969817	0.926133	0.995150
H9	H	0.975229	0.874483	0.993746
H10	H	0.067795	0.883427	0.014102
Br11	Br	0.078845	0.941779	0.025379
C12	C	0.983652	0.979503	0.013468
C13	C	0.978693	0.008871	0.009325
C14	C	0.999933	0.027235	0.998343
C15	C	0.027082	0.015596	0.992569
C16	C	0.032313	0.986182	0.996486
C17	C	0.993253	0.059728	0.989580
H18	H	0.956209	0.017226	0.014623
F19	F	0.960534	0.964377	0.026262
H20	H	0.054096	0.978371	0.988493
H21	H	0.044880	0.029861	0.983172
O22	O	0.012726	0.081624	0.003868
C23	C	0.965560	0.105807	0.995535
C24	C	0.961575	0.071661	0.997346
H25	H	0.944321	0.063419	0.981677
H26	H	0.955190	0.114977	0.975065
H27	H	0.954805	0.116042	0.015370
H28	H	0.955348	0.065774	0.020556
H29	H	0.007564	0.115023	0.971578
X30	C	0.000363	0.110607	0.994878
H31	H	0.996604	0.061811	0.965102

loop_
_geom_bond_atom_site_label_1
_geom_bond_atom_site_label_2
_geom_bond_distance
_ccdc_geom_bond_type
X1	C2	0.03007	. A
X1	C6	0.03033	. A
C2	C3	0.03008	. A
C2	H9	0.02462	. A
C3	C4	0.03057	. A
C3	H8	0.02453	. A
C4	C5	0.03075	. A
C4	C7	0.03075	. A
C5	C6	0.03016	. A
C5	Br11	0.04304	. A
C6	H10	0.02463	. A
C7	C12	0.03067	. A
C7	C16	0.03050	. A
C12	C13	0.03007	. A
C12	F19	0.03045	. A
C13	C14	0.03015	. A
C13	H18	0.02457	. A
C14	C15	0.03010	. A
C14	C17	0.03431	. A
C15	C16	0.03013	. A
C15	H21	0.02467	. A
C16	H20	0.02448	. A
C17	O22	0.03260	. A
C17	C24	0.03473	. A
C17	H31	0.02479	. A
O22	X30	0.03277	. A
C23	C24	0.03443	. A
C23	H26	0.02471	. A
C23	H27	0.02478	. A
C23	X30	0.03514	. A
C24	H25	0.02472	. A
C24	H28	0.02474	. A
H29	X30	0.02478	. A
